version 2
run General-4-20220514-10:33:24-24680
attr configname General
attr datetime 20220514-10:33:24
attr experiment General
attr inifile omnetpp.ini
attr iterationvars $0=0.5
attr iterationvarsf 0.5-
attr measurement $0=0.5
attr network Lab2
attr processid 24680
attr repetition 0
attr replication #0
attr resultdir results
attr runnumber 4
attr seedset 4
param **.sim_time 500s
param **.next_event_par 1.0/(0.5)
param **.pck_len_mean 1000
param **.pck_len_stddev 150
param **.pck_len_min 26
param **.pck_len_max 1480
param **.num_of_hosts 4
param **.host1.ipAddr.IP_addr 0
param **.host2.ipAddr.IP_addr 1
param **.host3.ipAddr.IP_addr 2
param **.host4.ipAddr.IP_addr 3
param **.arp_ttl 10s
param **.host1.eth.MAC_addr 0
param **.host2.eth.MAC_addr 1
param **.host3.eth.MAC_addr 2
param **.host4.eth.MAC_addr 3
param **.aging_time 1s

vector 0 Lab2.host4.eth interval:vector ETV
attr interpolationmode none
attr source interval
attr title "interval, vector"
vector 1 Lab2 delay:vector ETV
attr interpolationmode none
attr source delay
attr title "delay, vector"
vector 2 Lab2.host2.eth interval:vector ETV
attr interpolationmode none
attr source interval
attr title "interval, vector"
vector 3 Lab2.host3.eth interval:vector ETV
attr interpolationmode none
attr source interval
attr title "interval, vector"
vector 4 Lab2.host1.eth interval:vector ETV
attr interpolationmode none
attr source interval
attr title "interval, vector"
0	57	1.584900770586	1.584900770586
0	133	5.560360003627	3.975459233041
0	141	5.83936279682	0.279002793193
0	200	9.568844348188	3.729481551368
0	216	9.924578305377	0.355733957189
0	324	12.934834538156	3.010256232779
0	432	20.011331053888	7.076496515732
0	440	20.068650887331	0.057319833443
0	559	28.697906443074	8.629255555743
0	597	30.120237964711	1.422331521637
0	616	30.799642553729	0.679404589018
0	782	44.729007816601	13.929365262872
0	790	44.981125886293	0.252118069692
0	798	45.041557252187	0.060431365894
0	814	46.19792586426	1.156368612073
0	852	49.260036545925	3.062110681665
0	901	50.872758870571	1.612722324646
0	928	52.529143323333	1.656384452762
0	936	52.646959698272	0.117816374939
0	1095	62.738451899136	10.091492200864
0	1136	63.946124850392	1.207672951256
0	1174	65.293698528055	1.347573677663
0	1236	69.359790317642	4.066091789587
0	1268	70.049277615684	0.689487298042
0	1322	72.279323401326	2.230045785642
0	1536	86.590554281385	14.311230880059
0	1566	89.192646686559	2.602092405174
0	1585	90.288609915169	1.09596322861
0	1601	91.639577108663	1.350967193494
0	1609	91.903586785729	0.264009677066
0	1617	92.098912136213	0.195325350484
0	1788	102.720908205506	10.621996069293
0	1864	107.002969340988	4.282061135482
0	1880	108.009250630943	1.006281289955
0	1934	110.465466175781	2.456215544838
0	2042	115.351362000835	4.885895825054
0	2205	125.473186665849	10.121824665014
0	2432	139.721696776846	14.248510110997
0	2440	139.851850083678	0.130153306832
0	2641	153.473500144791	13.621650061113
0	2649	153.508889799709	0.035389654918
0	2665	153.888537110228	0.379647310519
0	2684	154.428190668695	0.539653558467
0	2810	159.711884538405	5.28369386971
0	2988	166.591158741621	6.879274203216
0	3042	168.48127026846	1.890111526839
0	3093	170.000350946996	1.519080678536
0	3163	172.981123750209	2.980772803213
0	3255	179.247713092335	6.266589342126
0	3263	179.858458060661	0.610744968326
0	3279	184.203012397791	4.34455433713
0	3350	188.082539553891	3.8795271561
0	3358	189.859504012084	1.776964458193
0	3377	190.399222652762	0.539718640678
0	3385	190.493897827511	0.094675174749
0	3439	193.939981228106	3.446083400595
0	3458	195.118590138097	1.178608909991
0	3466	195.13220379267	0.013613654573
0	3501	197.237010871034	2.104807078364
0	3672	209.230808184664	11.99379731363
0	3867	219.335957802735	10.105149618071
0	3894	220.557124340533	1.221166537798
0	3983	223.956107295826	3.398982955293
0	3991	224.277480200126	0.3213729043
0	4040	225.836177721325	1.558697521199
0	4064	226.169965647493	0.333787926168
0	4083	226.934943583954	0.764977936461
0	4137	229.829746245332	2.894802661378
0	4180	234.245790605248	4.416044359916
0	4359	244.83822073562	10.592430130372
0	4440	251.916520795162	7.078300059542
0	4546	256.222750979718	4.306230184556
0	4576	258.07611042445	1.853359444732
0	4744	267.837028053269	9.760917628819
0	4876	275.294574124224	7.457546070955
0	4884	275.65038635514	0.355812230916
0	4900	276.202110414457	0.551724059317
0	4930	279.210085454505	3.007975040048
0	4957	282.268601329432	3.058515874927
0	4965	282.279434530806	0.010833201374
0	4995	283.141012730056	0.86157819925
0	5071	286.720293329901	3.579280599845
0	5079	286.807174852634	0.086881522733
0	5133	288.430845035356	1.623670182722
0	5200	291.270853397333	2.840008361977
0	5208	291.706128264408	0.435274867075
0	5232	292.665967356536	0.959839092128
0	5319	298.328132068354	5.662164711818
0	5419	305.875770459071	7.547638390717
0	5493	308.9246116124	3.048841153329
0	5501	309.299493311849	0.374881699449
0	5517	309.891469824619	0.59197651277
0	5838	324.462669819261	14.571199994642
0	5846	325.223412836674	0.760743017413
0	5908	329.364780164512	4.141367327838
0	5935	329.872597569005	0.507817404493
0	6049	335.577276354749	5.704678785744
0	6138	342.276456962604	6.699180607855
0	6146	343.080384194922	0.803927232318
0	6184	344.742622302441	1.662238107519
0	6203	346.421628567975	1.679006265534
0	6219	347.119459290223	0.697830722248
0	6227	347.599046310701	0.479587020478
0	6257	350.557158040122	2.958111729421
0	6306	352.325726340687	1.768568300565
0	6314	352.640871982729	0.315145642042
0	6470	361.108541105078	8.467669122349
0	6486	361.353584744028	0.24504363895
0	6527	362.649529810292	1.295945066264
0	6546	363.546341111715	0.896811301423
0	6617	367.876152076742	4.329810965027
0	6719	370.908777855399	3.032625778657
0	6727	370.998867186152	0.090089330753
0	6735	371.18078096862	0.181913782468
0	7243	401.155172128485	29.974391159865
0	7385	408.69325186624	7.538079737755
0	7460	414.052329835299	5.359077969059
0	7620	422.413669604857	8.361339769558
0	7760	427.890452519503	5.476782914646
0	7825	432.527472941082	4.637020421579
0	7841	433.977587090007	1.450114148925
0	7873	435.252461007489	1.274873917482
0	7971	442.612566295043	7.360105287554
0	7979	442.746332403989	0.133766108946
0	7987	443.021335247476	0.275002843487
0	8036	446.112363933055	3.091028685579
0	8117	449.638742476101	3.526378543046
0	8228	457.181546572181	7.54280409608
0	8372	467.235362987992	10.053816415811
0	8434	469.993146987664	2.757783999672
0	8504	474.379633001642	4.386486013978
0	8534	476.279599091461	1.899966089819
0	8542	476.322065324815	0.042466233354
0	8561	478.604224304738	2.282158979923
0	8610	481.614165203466	3.009940898728
0	8732	493.667224596433	12.053059392967
0	8748	494.409476944631	0.742252348198
0	8775	495.861355900465	1.451878955834
0	8805	498.242473539277	2.381117638812
0	8832	499.507112786167	1.26463924689
1	57	1.584900770586	7.44e-005
1	87	3.387434591543	9.064e-005
1	95	3.870748941275	6.136e-005
1	114	5.224092156597	8.76e-005
1	133	5.560360003627	7.904e-005
1	141	5.83936279682	5.464e-005
1	149	6.388493865991	5.896e-005
1	157	6.993381818912	8.336e-005
1	165	7.512880082946	7.336e-005
1	173	7.911539640031	7.304e-005
1	181	8.463146772023	7.224e-005
1	200	9.568844348188	7.04e-005
1	208	9.710178944601	7.632e-005
1	216	9.924578305377	8.128e-005
1	235	10.466134650549	8.792e-005
1	243	10.598937296904	9.408e-005
1	273	11.337120872828	9.168e-005
1	281	11.885894765385	9.464e-005
1	289	12.021749241141	6.624e-005
1	308	12.232914109103	8.096e-005
1	316	12.723216574848	5.992e-005
1	324	12.934834538156	8.56e-005
1	332	13.397550823327	8.648e-005
1	362	15.149970736051	7.744e-005
1	370	15.189848224953	5.672e-005
1	400	18.697883215055	8.68e-005
1	408	18.731318316882	9.984e-005
1	416	18.788974536841	8.92e-005
1	424	19.121889609122	9.056e-005
1	432	20.011331053888	7.272e-005
1	440	20.068650887331	9.096e-005
1	492	22.780483010614	8.632e-005
1	500	23.519121006136	8.712e-005
1	508	23.907455614069	0.00010672
1	527	26.584971839107	0.00010184
1	535	26.769629670279	8.48e-005
1	543	26.945971282121	9.912e-005
1	551	28.402093813533	8.416e-005
1	559	28.697906443074	9.336e-005
1	578	29.380151983439	5.264e-005
1	597	30.120237964711	9.72e-005
1	616	30.799642553729	7.04e-005
1	624	30.894484234886	9.472e-005
1	698	36.93262082545	7.024e-005
1	706	37.575639235053	7.224e-005
1	725	38.105670482768	8.144e-005
1	733	38.287520750881	7.96e-005
1	752	43.051395946027	9.784e-005
1	782	44.729007816601	8.984e-005
1	790	44.981125886293	8.04e-005
1	798	45.041557252187	6.984e-005
1	806	45.248804490292	7.792e-005
1	814	46.19792586426	7.256e-005
1	844	49.007739628488	8.568e-005
1	852	49.260036545925	9.176e-005
1	893	50.838571434297	8.152e-005
1	901	50.872758870571	7.408e-005
1	920	52.059583718262	5.36e-005
1	928	52.529143323333	9.352e-005
1	936	52.646959698272	9.432e-005
1	944	52.989557711112	9.024e-005
1	963	53.605444592124	6.08e-005
1	982	55.964712295625	8.808e-005
1	990	56.272867581439	6.936e-005
1	998	58.121727963752	9.728e-005
1	1006	58.17500548578	7.552e-005
1	1014	58.702583053656	8.728e-005
1	1022	58.777212975701	9.432e-005
1	1030	59.235132064292	7.528e-005
1	1038	59.637911427279	7.424e-005
1	1046	59.998977898015	9.016e-005
1	1087	62.242866481054	7.408e-005
1	1095	62.738451899136	8.48e-005
1	1136	63.946124850392	6.76e-005
1	1166	65.004106423591	0.00010496
1	1174	65.293698528055	8.24e-005
1	1182	65.785266730263	7.32e-005
1	1190	66.446678435102	0.00010312
1	1198	66.998215651016	8.024e-005
1	1217	68.074690016286	8.84e-005
1	1236	69.359790317642	0.00010288
1	1244	69.48430970159	6.896e-005
1	1252	69.622730583254	7.768e-005
1	1260	69.693270579606	7.816e-005
1	1268	70.049277615684	6.64e-005
1	1287	70.576450410202	6.448e-005
1	1306	71.367595399092	7.248e-005
1	1314	71.405100674552	8.2e-005
1	1322	72.279323401326	7.648e-005
1	1330	72.881602338328	7.936e-005
1	1371	73.738092525242	4.792e-005
1	1379	74.034085837488	9.216e-005
1	1387	74.79605618189	7.92e-005
1	1395	76.938670610344	5.824e-005
1	1403	77.67153610553	9.928e-005
1	1422	78.566795076248	8.376e-005
1	1441	80.297859133408	6.32e-005
1	1449	81.849195335144	7.904e-005
1	1468	82.011324081317	7.304e-005
1	1509	83.805532191734	5.496e-005
1	1517	84.494931111639	8.744e-005
1	1536	86.590554281385	7.904e-005
1	1566	89.192646686559	5.664e-005
1	1585	90.288609915169	8.792e-005
1	1593	91.40612411517	7.76e-005
1	1601	91.639577108663	5.288e-005
1	1609	91.903586785729	7.912e-005
1	1617	92.098912136213	0.00010224
1	1625	92.861743609489	8.912e-005
1	1644	93.652007081469	8.456e-005
1	1674	94.331621872901	7.544e-005
1	1693	95.753057773248	7.976e-005
1	1712	98.989133010092	7.208e-005
1	1720	100.435666520963	9.568e-005
1	1728	100.68935783004	7.92e-005
1	1769	102.235623540185	8.024e-005
1	1788	102.720908205506	6.456e-005
1	1796	102.862012069038	8.368e-005
1	1826	106.389134156085	0.00010112
1	1845	106.81643496475	7.392e-005
1	1864	107.002969340988	9.568e-005
1	1872	107.860121967158	8.856e-005
1	1880	108.009250630943	7.304e-005
1	1888	108.187915783762	9.232e-005
1	1896	108.464088834078	8.416e-005
1	1926	110.37925442779	0.00010104
1	1934	110.465466175781	9.76e-005
1	1942	110.766464010157	0.00010472
1	1950	111.1716302847	6.48e-005
1	1969	111.378502390158	0.0001012
1	1977	111.474994308763	8.208e-005
1	1985	112.275244318826	8.448e-005
1	1993	112.933893495384	7.16e-005
1	2034	114.883665073322	0.00010512
1	2042	115.351362000835	8.616e-005
1	2072	118.624813414622	5.6e-005
1	2102	120.854100911743	9.096e-005
1	2110	121.191849384533	0.00010664
1	2140	122.502107523167	9.984e-005
1	2148	123.322088008362	0.00010584
1	2156	123.870039581673	8.28e-005
1	2186	125.364887796059	5.528e-005
1	2205	125.473186665849	7.832e-005
1	2213	126.09376437502	0.000118
1	2221	126.433772584099	6.68e-005
1	2240	128.732826777745	6.944e-005
1	2248	128.770295223793	5.816e-005
1	2256	129.036485902585	6.216e-005
1	2264	129.348239686962	9.928e-005
1	2294	131.312992820945	7.528e-005
1	2324	134.851232746074	8.984e-005
1	2343	135.154868871742	9.304e-005
1	2373	136.866688643888	7.104e-005
1	2392	137.735960409183	8.992e-005
1	2400	138.188995071091	0.00010968
1	2408	138.28537492392	9.04e-005
1	2416	138.436887443547	6.48e-005
1	2424	138.613703428468	5.96e-005
1	2432	139.721696776846	8.368e-005
1	2440	139.851850083678	8.08e-005
1	2470	142.400592401701	7.536e-005
1	2478	143.560260310671	6.864e-005
1	2497	144.788376673807	6.256e-005
1	2505	144.876270744464	7.6e-005
1	2590	152.634291724927	0.00010456
1	2598	152.822519789164	6.376e-005
1	2606	153.139165935663	7.696e-005
1	2614	153.319718738562	9.664e-005
1	2633	153.355004227321	8.96e-005
1	2641	153.473500144791	9.888e-005
1	2649	153.508889799709	7.96e-005
1	2657	153.591246436852	7.864e-005
1	2665	153.888537110228	6.296e-005
1	2684	154.428190668695	9.856e-005
1	2703	154.742955143541	9.928e-005
1	2711	154.966938752327	8.736e-005
1	2719	155.017728265823	9.632e-005
1	2738	156.007311990635	8.64e-005
1	2746	156.280725549084	7.824e-005
1	2754	156.479305993194	6.832e-005
1	2762	156.920772221573	7.768e-005
1	2770	157.403677173947	8.6e-005
1	2778	158.007231636552	8.328e-005
1	2786	158.661373175385	9.232e-005
1	2794	158.690470652544	5.376e-005
1	2802	159.395342134671	6.392e-005
1	2810	159.711884538405	9.352e-005
1	2818	160.124268106141	9.824e-005
1	2826	161.435254773285	8.872e-005
1	2834	161.995082370277	7.304e-005
1	2842	161.999517148752	7.48e-005
1	2850	162.029711528249	7.408e-005
1	2858	162.275707665506	6.552e-005
1	2866	162.420321539202	7.712e-005
1	2885	162.926903213121	6.672e-005
1	2915	164.949097912431	6.448e-005
1	2934	165.039679629601	7.808e-005
1	2942	165.312972627584	8.904e-005
1	2950	165.316361555308	8.352e-005
1	2958	165.497053252698	0.00011416
1	2988	166.591158741621	6.488e-005
1	2996	167.086056243828	0.00011432
1	3015	167.731652011932	7.08e-005
1	3034	168.337596784044	8.304e-005
1	3042	168.48127026846	8.04e-005
1	3061	169.100501225628	6.68e-005
1	3069	169.339443606958	8.272e-005
1	3077	169.350470700904	0.00010584
1	3085	169.516053848109	7.544e-005
1	3093	170.000350946996	9.456e-005
1	3101	170.67082681231	9.216e-005
1	3109	170.875660039487	9.192e-005
1	3128	171.089281667513	8.816e-005
1	3136	171.159623821833	8.456e-005
1	3155	172.244460335443	7.04e-005
1	3163	172.981123750209	8.92e-005
1	3171	173.175007140581	7.296e-005
1	3179	173.177723841021	6.464e-005
1	3187	173.476870544891	8.624e-005
1	3195	174.251324037033	6.408e-005
1	3236	177.269807964568	9.496e-005
1	3255	179.247713092335	8.616e-005
1	3263	179.858458060661	6.352e-005
1	3271	184.178537081058	8.152e-005
1	3279	184.203012397791	7.512e-005
1	3342	187.306712811291	8.368e-005
1	3350	188.082539553891	6.44e-005
1	3358	189.859504012084	7.184e-005
1	3377	190.399222652762	8.344e-005
1	3385	190.493897827511	8.728e-005
1	3393	191.934331493172	7.808e-005
1	3423	193.417187792581	7.576e-005
1	3431	193.688210806336	7e-005
1	3439	193.939981228106	8.576e-005
1	3458	195.118590138097	7.512e-005
1	3466	195.13220379267	8.576e-005
1	3474	195.279989889039	7.072e-005
1	3482	196.708377376103	8.216e-005
1	3501	197.237010871034	9.248e-005
1	3553	203.395518660914	6.48e-005
1	3572	204.062778823301	0.00010088
1	3580	204.365224836399	8.272e-005
1	3599	205.149356701478	6.752e-005
1	3629	205.718045892096	7.832e-005
1	3637	206.381087625646	8.064e-005
1	3645	206.40895384643	7.64e-005
1	3664	208.328607052298	9.44e-005
1	3672	209.230808184664	6.848e-005
1	3713	210.550936819358	6.936e-005
1	3732	211.8544013133	6.696e-005
1	3740	211.952792067391	7.688e-005
1	3748	212.372424610972	8.64e-005
1	3756	212.561141086984	8.024e-005
1	3764	212.808331798566	8.528e-005
1	3783	214.140899376897	7.896e-005
1	3813	216.455907013278	8.448e-005
1	3821	216.768014943897	9.328e-005
1	3840	217.69567817908	8.024e-005
1	3848	219.250586767966	8.68e-005
1	3867	219.335957802735	8.424e-005
1	3875	219.529688342887	5.632e-005
1	3894	220.557124340533	7.968e-005
1	3913	220.807577649257	8.936e-005
1	3921	221.494813802883	8.304e-005
1	3929	221.859525454141	8.192e-005
1	3937	221.994396981274	6.56e-005
1	3956	223.186650438655	0.00010312
1	3975	223.716904658887	7.944e-005
1	3983	223.956107295826	8.536e-005
1	3991	224.277480200126	9.456e-005
1	4032	225.794675000857	6.992e-005
1	4040	225.836177721325	8.512e-005
1	4048	225.918085074777	8.072e-005
1	4056	225.983627950088	9.664e-005
1	4064	226.169965647493	6.056e-005
1	4083	226.934943583954	9.24e-005
1	4091	227.067046012325	0.00010872
1	4099	227.455704615597	8.008e-005
1	4107	228.864307958435	8.072e-005
1	4137	229.829746245332	9.024e-005
1	4156	229.858660298202	9.12e-005
1	4164	230.824291379545	7.2e-005
1	4172	232.824298885949	8.936e-005
1	4180	234.245790605248	6.168e-005
1	4188	234.570146951356	8.376e-005
1	4229	237.128582744379	6.84e-005
1	4237	237.140905968475	5.672e-005
1	4278	241.189173832062	7.76e-005
1	4308	241.575730843541	6.376e-005
1	4316	242.439314138822	5.56e-005
1	4324	243.235885658239	8.16e-005
1	4332	243.460149084092	6.64e-005
1	4351	243.825584892487	6.736e-005
1	4359	244.83822073562	7.56e-005
1	4367	245.040396393114	7.504e-005
1	4386	248.954249395452	7.688e-005
1	4405	250.44863163992	6.456e-005
1	4413	250.768086894293	8.888e-005
1	4432	251.329694057913	7.712e-005
1	4440	251.916520795162	7.352e-005
1	4481	253.212386266937	8.232e-005
1	4489	253.404644207189	8.048e-005
1	4497	253.589115231842	5.952e-005
1	4527	255.645402989024	7.048e-005
1	4546	256.222750979718	9.184e-005
1	4576	258.07611042445	9.536e-005
1	4584	258.486655803064	9.608e-005
1	4592	259.08239532587	9.288e-005
1	4600	259.272870591736	7.328e-005
1	4608	259.560927015354	8.816e-005
1	4616	260.559619980764	8.304e-005
1	4635	261.813646320704	7.88e-005
1	4643	262.187316329897	7.288e-005
1	4673	265.233949987525	8.856e-005
1	4681	265.623973493214	0.0001012
1	4744	267.837028053269	8.976e-005
1	4752	269.673517500302	5.992e-005
1	4771	270.142896602868	8.464e-005
1	4779	270.362219435743	9.968e-005
1	4787	270.576007446368	0.00011272
1	4795	271.835216779668	8.096e-005
1	4803	271.867075385892	9.64e-005
1	4822	272.911896667027	8.608e-005
1	4841	273.576571500651	8.104e-005
1	4849	274.083324590269	5.352e-005
1	4857	274.495410318356	5.576e-005
1	4876	275.294574124224	7.68e-005
1	4884	275.65038635514	5.008e-005
1	4892	275.936145620435	7.368e-005
1	4900	276.202110414457	8.064e-005
1	4930	279.210085454505	7.328e-005
1	4938	280.277593257496	9.176e-005
1	4957	282.268601329432	7.752e-005
1	4965	282.279434530806	7.824e-005
1	4995	283.141012730056	8.696e-005
1	5003	283.482883890829	0.000102
1	5022	284.414189190311	8.872e-005
1	5052	285.832193059674	9.432e-005
1	5071	286.720293329901	9e-005
1	5079	286.807174852634	8.712e-005
1	5109	287.457651078118	7.504e-005
1	5117	287.727141202077	9.728e-005
1	5125	287.856923932283	9.208e-005
1	5133	288.430845035356	0.000112
1	5141	289.483181274752	9.016e-005
1	5149	289.928140344051	7.208e-005
1	5157	290.197842307896	9.072e-005
1	5176	290.806437741835	9.184e-005
1	5184	290.807296102233	8.192e-005
1	5192	290.935883382012	8.632e-005
1	5200	291.270853397333	8.248e-005
1	5208	291.706128264408	6.52e-005
1	5216	292.154680484789	9.24e-005
1	5224	292.48776539597	6.904e-005
1	5232	292.665967356536	0.00010048
1	5251	293.583458179571	8.432e-005
1	5292	296.378993577576	0.0001028
1	5311	297.95069968294	8.736e-005
1	5319	298.328132068354	0.0001036
1	5327	299.224425232643	7.272e-005
1	5368	303.680016822278	9.632e-005
1	5376	304.56486671943	5.92e-005
1	5384	304.674365584238	8.12e-005
1	5403	305.659187805916	8.152e-005
1	5411	305.786893699119	7.568e-005
1	5419	305.875770459071	8.896e-005
1	5493	308.9246116124	6.856e-005
1	5501	309.299493311849	7.648e-005
1	5509	309.745677657759	0.00010528
1	5517	309.891469824619	8.176e-005
1	5525	310.054208331462	8.264e-005
1	5533	310.235126418577	9.96e-005
1	5552	310.715719858511	7.576e-005
1	5560	311.035542554611	9.016e-005
1	5568	311.902510618928	7.52e-005
1	5576	312.328846686031	8.744e-005
1	5584	312.859030849274	0.00010824
1	5592	313.849005035002	7.712e-005
1	5611	315.48622394226	8.328e-005
1	5619	315.833073659077	0.00010872
1	5627	316.339257187921	7.408e-005
1	5646	317.489606390848	8.904e-005
1	5654	318.472998280886	8.072e-005
1	5673	319.357050852297	8.56e-005
1	5681	320.368816005507	7.52e-005
1	5733	321.919440201016	7.808e-005
1	5741	321.925506336925	8.576e-005
1	5749	322.28621807521	9.872e-005
1	5757	322.409228064639	8.488e-005
1	5787	323.122580521376	8.304e-005
1	5795	323.51973981799	9.672e-005
1	5803	323.886211563921	9.472e-005
1	5822	324.26705425446	8.632e-005
1	5830	324.362834938054	6.192e-005
1	5838	324.462669819261	0.00010328
1	5846	325.223412836674	7e-005
1	5854	325.414481992065	8.544e-005
1	5862	325.897249359299	9.752e-005
1	5881	327.073340907331	9.176e-005
1	5889	327.624421083397	8.744e-005
1	5908	329.364780164512	8.672e-005
1	5927	329.83021793477	9.416e-005
1	5935	329.872597569005	7.288e-005
1	5943	330.37574252692	6.112e-005
1	5995	333.631372449722	8.184e-005
1	6003	333.697105381864	9.168e-005
1	6011	334.241492781813	8.624e-005
1	6019	334.254125989698	6.648e-005
1	6049	335.577276354749	8.384e-005
1	6057	338.182226775292	9.968e-005
1	6065	338.199011390421	8.92e-005
1	6073	338.628069253222	7.112e-005
1	6092	340.476633905692	7.272e-005
1	6111	341.253854156524	9.632e-005
1	6130	341.795220804284	7.272e-005
1	6138	342.276456962604	0.0001008
1	6146	343.080384194922	7.592e-005
1	6176	343.968840598358	7.896e-005
1	6184	344.742622302441	8.68e-005
1	6203	346.421628567975	6.912e-005
1	6211	347.024898420353	7.488e-005
1	6219	347.119459290223	0.00010056
1	6227	347.599046310701	7.536e-005
1	6257	350.557158040122	6.624e-005
1	6298	351.73285245342	5.904e-005
1	6306	352.325726340687	9.016e-005
1	6314	352.640871982729	7.448e-005
1	6322	352.718296851134	9.744e-005
1	6341	352.957405602186	7.168e-005
1	6349	353.247930167386	6.48e-005
1	6357	353.43842755747	6.808e-005
1	6365	353.673862014091	8.44e-005
1	6395	354.811995666707	7.36e-005
1	6403	355.710974761679	7.264e-005
1	6411	358.04138197083	9.08e-005
1	6430	358.804287433918	7.608e-005
1	6438	358.806048254112	8.216e-005
1	6446	358.994401521254	9.04e-005
1	6454	359.147660514244	8.488e-005
1	6462	360.018456276508	9.32e-005
1	6470	361.108541105078	8.928e-005
1	6478	361.204138007099	8.168e-005
1	6486	361.353584744028	9.696e-005
1	6527	362.649529810292	6.864e-005
1	6546	363.546341111715	7.448e-005
1	6587	365.203084888538	6.736e-005
1	6617	367.876152076742	7.544e-005
1	6625	368.299911543057	7.704e-005
1	6633	368.563911909012	7.064e-005
1	6641	368.674523412818	7.584e-005
1	6649	368.835596364566	8.64e-005
1	6679	369.302949152358	7.544e-005
1	6687	369.926221622253	6.944e-005
1	6695	370.284815200333	9.52e-005
1	6703	370.875854021903	7.88e-005
1	6711	370.907006221838	7.08e-005
1	6719	370.908777855399	5.872e-005
1	6727	370.998867186152	6.104e-005
1	6735	371.18078096862	9.256e-005
1	6743	372.03231963928	8.08e-005
1	6762	374.653324689783	8.664e-005
1	6770	375.525160775515	7.56e-005
1	6789	376.448709377824	6.112e-005
1	6797	376.547006122894	7.008e-005
1	6827	377.511919543201	7.664e-005
1	6835	377.921173856094	8.192e-005
1	6876	381.640479913337	7.72e-005
1	6895	383.485582078026	0.00010176
1	6903	384.197341515585	6.368e-005
1	6911	385.209498084975	7.712e-005
1	6930	386.058058395858	6.344e-005
1	6938	386.183705794324	9.744e-005
1	6979	387.699230183849	5.512e-005
1	6987	387.942455445869	5.28e-005
1	6995	389.521915368619	6.824e-005
1	7014	389.569087332369	9.608e-005
1	7022	389.69451498165	7.4e-005
1	7041	390.094421378681	8.528e-005
1	7049	390.621398770211	8.96e-005
1	7068	392.12524449524	7.696e-005
1	7098	392.61066429958	7.84e-005
1	7106	393.948882974068	7.784e-005
1	7114	394.257227647556	9.144e-005
1	7133	394.653557865855	7.28e-005
1	7141	395.055300490758	6.32e-005
1	7149	395.107813912851	6.144e-005
1	7168	395.937090113907	7.952e-005
1	7176	396.434420637117	0.00011352
1	7184	396.938367556044	9.44e-005
1	7192	398.172126544955	7.048e-005
1	7200	398.357560463745	0.00010088
1	7219	399.769279492141	0.00010168
1	7227	400.577331613896	8.808e-005
1	7235	400.698792951659	8.128e-005
1	7243	401.155172128485	9.288e-005
1	7262	401.969624516329	5.848e-005
1	7292	402.963495757925	9.984e-005
1	7344	405.920658924959	8.08e-005
1	7385	408.69325186624	8.448e-005
1	7393	409.025726400565	8.096e-005
1	7401	409.226981798973	6e-005
1	7420	411.097503432728	6.704e-005
1	7428	412.024740355116	8.968e-005
1	7436	412.030932980383	8.256e-005
1	7444	412.491090212433	7.848e-005
1	7452	413.4113552871	8.456e-005
1	7460	414.052329835299	6.776e-005
1	7512	418.090039192695	9.096e-005
1	7542	420.281286252259	7.432e-005
1	7550	420.57384282613	9.768e-005
1	7569	421.330665401258	9.472e-005
1	7588	421.893757857674	9.032e-005
1	7596	421.920980970989	0.00010048
1	7604	421.960504525819	7.64e-005
1	7612	422.188071623404	7.88e-005
1	7620	422.413669604857	8.224e-005
1	7628	422.672581282515	6.504e-005
1	7647	423.242092407471	7.888e-005
1	7655	423.546882162092	7.976e-005
1	7663	424.171241076176	8.416e-005
1	7682	424.663785696076	8.664e-005
1	7690	425.335841999523	9.432e-005
1	7709	426.020204023989	7.2e-005
1	7717	426.895589396358	0.00010744
1	7736	426.923005007626	7.808e-005
1	7744	427.570475470831	5.232e-005
1	7752	427.613711561233	6.52e-005
1	7760	427.890452519503	9.192e-005
1	7768	427.963475357342	8.248e-005
1	7776	428.218238013621	9.912e-005
1	7806	429.294419262533	8.288e-005
1	7825	432.527472941082	7e-005
1	7833	433.502648116044	9.088e-005
1	7841	433.977587090007	6.696e-005
1	7849	434.331777018858	7.496e-005
1	7857	434.584524758167	8.272e-005
1	7865	434.608614256402	5.144e-005
1	7873	435.252461007489	8.4e-005
1	7881	435.856095702232	7.296e-005
1	7922	440.159535769178	8.808e-005
1	7930	441.029629498695	7.88e-005
1	7971	442.612566295043	9.448e-005
1	7979	442.746332403989	8.448e-005
1	7987	443.021335247476	8.12e-005
1	7995	444.776824152921	6.664e-005
1	8036	446.112363933055	9.264e-005
1	8066	446.561351276668	8.792e-005
1	8074	446.942705900065	7.376e-005
1	8093	447.543247936156	8.736e-005
1	8101	447.77128094931	7.568e-005
1	8109	448.620980704649	7.192e-005
1	8117	449.638742476101	7.84e-005
1	8125	450.233577398889	9.944e-005
1	8133	450.321269084772	6.24e-005
1	8141	452.709356344296	8.52e-005
1	8149	452.93133371629	8.784e-005
1	8157	453.233662820966	7.928e-005
1	8198	454.846131142728	7.752e-005
1	8228	457.181546572181	6.984e-005
1	8280	460.479671324163	0.00010624
1	8288	461.345530795758	9.264e-005
1	8296	461.390195117396	8.192e-005
1	8326	463.91275828384	8.728e-005
1	8334	464.383464616361	8.952e-005
1	8342	465.437319710329	9.264e-005
1	8372	467.235362987992	9.288e-005
1	8391	467.737224014529	0.00010288
1	8399	468.062497230018	0.0001104
1	8407	468.488339057654	8.536e-005
1	8415	468.877243209556	8.176e-005
1	8434	469.993146987664	7.64e-005
1	8442	470.145695707993	7.368e-005
1	8450	470.596544523248	7.704e-005
1	8458	471.609809908445	9.576e-005
1	8488	474.10956989062	0.0001068
1	8496	474.176478570771	7.112e-005
1	8504	474.379633001642	6.664e-005
1	8534	476.279599091461	7.512e-005
1	8542	476.322065324815	0.00010024
1	8561	478.604224304738	9.32e-005
1	8580	479.191293456442	8.688e-005
1	8610	481.614165203466	7.944e-005
1	8618	483.094789825172	7.992e-005
1	8626	484.913358944293	7.728e-005
1	8667	489.24537163593	8.672e-005
1	8675	489.287788088239	9.952e-005
1	8683	489.683135175957	8.808e-005
1	8724	492.818947227431	8.864e-005
1	8732	493.667224596433	5.512e-005
1	8740	493.778608739744	9.704e-005
1	8748	494.409476944631	7.776e-005
1	8767	495.386493577477	8.376e-005
1	8775	495.861355900465	8.152e-005
1	8805	498.242473539277	5.392e-005
1	8813	498.607641146363	8.048e-005
1	8832	499.507112786167	6.096e-005
1	8840	499.588041443387	6.608e-005
1	8859	499.75994564302	7.448e-005
2	87	3.387434591543	3.387434591543
2	114	5.224092156597	1.836657565054
2	149	6.388493865991	1.164401709394
2	316	12.723216574848	6.334722708857
2	492	22.780483010614	10.057266435766
2	527	26.584971839107	3.804488828493
2	551	28.402093813533	1.817121974426
2	578	29.380151983439	0.978058169906
2	698	36.93262082545	7.552468842011
2	706	37.575639235053	0.643018409603
2	752	43.051395946027	5.475756710974
2	844	49.007739628488	5.956343682461
2	963	53.605444592124	4.597704963636
2	990	56.272867581439	2.667422989315
2	1006	58.17500548578	1.902137904341
2	1166	65.004106423591	6.829100937811
2	1190	66.446678435102	1.442572011511
2	1217	68.074690016286	1.628011581184
2	1244	69.48430970159	1.409619685304
2	1314	71.405100674552	1.920790972962
2	1371	73.738092525242	2.33299185069
2	1379	74.034085837488	0.295993312246
2	1387	74.79605618189	0.761970344402
2	1395	76.938670610344	2.142614428454
2	1422	78.566795076248	1.628124465904
2	1441	80.297859133408	1.73106405716
2	1517	84.494931111639	4.197071978231
2	1728	100.68935783004	16.194426718401
2	1977	111.474994308763	10.785636478723
2	1985	112.275244318826	0.800250010063
2	1993	112.933893495384	0.658649176558
2	2186	125.364887796059	12.430994300675
2	2240	128.732826777745	3.367938981686
2	2248	128.770295223793	0.037468446048
2	2264	129.348239686962	0.577944463169
2	2294	131.312992820945	1.964753133983
2	2478	143.560260310671	12.247267489726
2	2497	144.788376673807	1.228116363136
2	2703	154.742955143541	9.954578469734
2	2746	156.280725549084	1.537770405543
2	2802	159.395342134671	3.114616585587
2	2826	161.435254773285	2.039912638614
2	2834	161.995082370277	0.559827596992
2	2850	162.029711528249	0.034629157972
2	2858	162.275707665506	0.245996137257
2	2866	162.420321539202	0.144613873696
2	2996	167.086056243828	4.665734704626
2	3015	167.731652011932	0.645595768104
2	3069	169.339443606958	1.607791595026
2	3136	171.159623821833	1.820180214875
2	3187	173.476870544891	2.317246723058
2	3271	184.178537081058	10.701666536167
2	3393	191.934331493172	7.755794412114
2	3474	195.279989889039	3.345658395867
2	3572	204.062778823301	8.782788934262
2	3599	205.149356701478	1.086577878177
2	3645	206.40895384643	1.259597144952
2	3732	211.8544013133	5.44544746687
2	3756	212.561141086984	0.706739773684
2	3764	212.808331798566	0.247190711582
2	3783	214.140899376897	1.332567578331
2	3848	219.250586767966	5.109687391069
2	3956	223.186650438655	3.936063670689
2	4048	225.918085074777	2.731434636122
2	4056	225.983627950088	0.065542875311
2	4091	227.067046012325	1.083418062237
2	4308	241.575730843541	14.508684831216
2	4386	248.954249395452	7.378518551911
2	4481	253.212386266937	4.258136871485
2	4497	253.589115231842	0.376728964905
2	4584	258.486655803064	4.897540571222
2	4752	269.673517500302	11.186861697238
2	4787	270.576007446368	0.902489946066
2	4795	271.835216779668	1.2592093333
2	4803	271.867075385892	0.031858606224
2	4892	275.936145620435	4.069070234543
2	5117	287.727141202077	11.790995581642
2	5125	287.856923932283	0.129782730206
2	5176	290.806437741835	2.949513809552
2	5216	292.154680484789	1.348242742954
2	5224	292.48776539597	0.333084911181
2	5403	305.659187805916	13.171422409946
2	5411	305.786893699119	0.127705893203
2	5509	309.745677657759	3.95878395864
2	5525	310.054208331462	0.308530673703
2	5533	310.235126418577	0.180918087115
2	5552	310.715719858511	0.480593439934
2	5576	312.328846686031	1.61312682752
2	5627	316.339257187921	4.01041050189
2	5673	319.357050852297	3.017793664376
2	5795	323.51973981799	4.162688965693
2	5822	324.26705425446	0.74731443647
2	5881	327.073340907331	2.806286652871
2	5943	330.37574252692	3.302401619589
2	6003	333.697105381864	3.321362854944
2	6073	338.628069253222	4.930963871358
2	6092	340.476633905692	1.84856465247
2	6349	353.247930167386	12.771296261694
2	6357	353.43842755747	0.190497390084
2	6365	353.673862014091	0.235434456621
2	6395	354.811995666707	1.138133652616
2	6430	358.804287433918	3.992291767211
2	6438	358.806048254112	0.001760820194
2	6462	360.018456276508	1.212408022396
2	6587	365.203084888538	5.18462861203
2	6625	368.299911543057	3.096826654519
2	6633	368.563911909012	0.264000365955
2	6649	368.835596364566	0.271684455554
2	6687	369.926221622253	1.090625257687
2	6797	376.547006122894	6.620784500641
2	6827	377.511919543201	0.964913420307
2	6876	381.640479913337	4.128560370136
2	6911	385.209498084975	3.569018171638
2	6930	386.058058395858	0.848560310883
2	6938	386.183705794324	0.125647398466
2	6979	387.699230183849	1.515524389525
2	7014	389.569087332369	1.86985714852
2	7068	392.12524449524	2.556157162871
2	7098	392.61066429958	0.48541980434
2	7149	395.107813912851	2.497149613271
2	7200	398.357560463745	3.249746550894
2	7393	409.025726400565	10.66816593682
2	7428	412.024740355116	2.999013954551
2	7444	412.491090212433	0.466349857317
2	7452	413.4113552871	0.920265074667
2	7612	422.188071623404	8.776716336304
2	7628	422.672581282515	0.484509659111
2	7663	424.171241076176	1.498659793661
2	7682	424.663785696076	0.4925446199
2	7806	429.294419262533	4.630633566457
2	7857	434.584524758167	5.290105495634
2	7922	440.159535769178	5.575011011011
2	7995	444.776824152921	4.617288383743
2	8066	446.561351276668	1.784527123747
2	8074	446.942705900065	0.381354623397
2	8101	447.77128094931	0.828575049245
2	8141	452.709356344296	4.938075394986
2	8157	453.233662820966	0.52430647667
2	8198	454.846131142728	1.612468321762
2	8288	461.345530795758	6.49939965303
2	8326	463.91275828384	2.567227488082
2	8391	467.737224014529	3.824465730689
2	8399	468.062497230018	0.325273215489
2	8442	470.145695707993	2.083198477975
2	8450	470.596544523248	0.450848815255
2	8458	471.609809908445	1.013265385197
2	8488	474.10956989062	2.499759982175
2	8675	489.287788088239	15.178218197619
2	8683	489.683135175957	0.395347087718
2	8724	492.818947227431	3.135812051474
2	8740	493.778608739744	0.959661512313
2	8767	495.386493577477	1.607884837733
2	8813	498.607641146363	3.221147568886
2	8859	499.75994564302	1.152304496657
3	95	3.870748941275	3.870748941275
3	165	7.512880082946	3.642131141671
3	173	7.911539640031	0.398659557085
3	181	8.463146772023	0.551607131992
3	208	9.710178944601	1.247032172578
3	235	10.466134650549	0.755955705948
3	273	11.337120872828	0.870986222279
3	308	12.232914109103	0.895793236275
3	332	13.397550823327	1.164636714224
3	370	15.189848224953	1.792297401626
3	400	18.697883215055	3.508034990102
3	408	18.731318316882	0.033435101827
3	416	18.788974536841	0.057656219959
3	424	19.121889609122	0.332915072281
3	982	55.964712295625	36.842822686503
3	998	58.121727963752	2.157015668127
3	1022	58.777212975701	0.655485011949
3	1038	59.637911427279	0.860698451578
3	1046	59.998977898015	0.361066470736
3	1260	69.693270579606	9.694292681591
3	1330	72.881602338328	3.188331758722
3	1403	77.67153610553	4.789933767202
3	1509	83.805532191734	6.133996086204
3	1593	91.40612411517	7.600591923436
3	1693	95.753057773248	4.346933658078
3	1712	98.989133010092	3.236075236844
3	1720	100.435666520963	1.446533510871
3	1769	102.235623540185	1.799957019222
3	1826	106.389134156085	4.1535106159
3	1845	106.81643496475	0.427300808665
3	1926	110.37925442779	3.56281946304
3	1942	110.766464010157	0.387209582367
3	2034	114.883665073322	4.117201063165
3	2140	122.502107523167	7.618442449845
3	2156	123.870039581673	1.367932058506
3	2324	134.851232746074	10.981193164401
3	2343	135.154868871742	0.303636125668
3	2373	136.866688643888	1.711819772146
3	2392	137.735960409183	0.869271765295
3	2408	138.28537492392	0.549414514737
3	2416	138.436887443547	0.151512519627
3	2424	138.613703428468	0.176815984921
3	2590	152.634291724927	14.020588296459
3	2606	153.139165935663	0.504874210736
3	2614	153.319718738562	0.180552802899
3	2633	153.355004227321	0.035285488759
3	2657	153.591246436852	0.236242209531
3	2719	155.017728265823	1.426481828971
3	2738	156.007311990635	0.989583724812
3	2754	156.479305993194	0.471994002559
3	2794	158.690470652544	2.21116465935
3	2818	160.124268106141	1.433797453597
3	2885	162.926903213121	2.80263510698
3	2934	165.039679629601	2.11277641648
3	2950	165.316361555308	0.276681925707
3	2958	165.497053252698	0.18069169739
3	3034	168.337596784044	2.840543531346
3	3061	169.100501225628	0.762904441584
3	3109	170.875660039487	1.775158813859
3	3155	172.244460335443	1.368800295956
3	3195	174.251324037033	2.00686370159
3	3740	211.952792067391	37.701468030358
3	3748	212.372424610972	0.419632543581
3	3813	216.455907013278	4.083482402306
3	3821	216.768014943897	0.312107930619
3	3840	217.69567817908	0.927663235183
3	3913	220.807577649257	3.111899470177
3	4032	225.794675000857	4.9870973516
3	4107	228.864307958435	3.069632957578
3	4188	234.570146951356	5.705838992921
3	4316	242.439314138822	7.869167187466
3	4324	243.235885658239	0.796571519417
3	4351	243.825584892487	0.589699234248
3	4413	250.768086894293	6.942502001806
3	4527	255.645402989024	4.877316094731
3	4600	259.272870591736	3.627467602712
3	4608	259.560927015354	0.288056423618
3	4616	260.559619980764	0.99869296541
3	4635	261.813646320704	1.25402633994
3	4681	265.623973493214	3.81032717251
3	4771	270.142896602868	4.518923109654
3	4779	270.362219435743	0.219322832875
3	4849	274.083324590269	3.721105154526
3	4857	274.495410318356	0.412085728087
3	5022	284.414189190311	9.918778871955
3	5109	287.457651078118	3.043461887807
3	5141	289.483181274752	2.025530196634
3	5149	289.928140344051	0.444959069299
3	5157	290.197842307896	0.269701963845
3	5184	290.807296102233	0.609453794337
3	5192	290.935883382012	0.128587279779
3	5327	299.224425232643	8.288541850631
3	5368	303.680016822278	4.455591589635
3	5384	304.674365584238	0.99434876196
3	5560	311.035542554611	6.361176970373
3	5584	312.859030849274	1.823488294663
3	5592	313.849005035002	0.989974185728
3	5611	315.48622394226	1.637218907258
3	5619	315.833073659077	0.346849716817
3	5741	321.925506336925	6.092432677848
3	5749	322.28621807521	0.360711738285
3	5757	322.409228064639	0.123009989429
3	5787	323.122580521376	0.713352456737
3	6011	334.241492781813	11.118912260437
3	6019	334.254125989698	0.012633207885
3	6065	338.199011390421	3.944885400723
3	6130	341.795220804284	3.596209413863
3	6411	358.04138197083	16.246161166546
3	6679	369.302949152358	11.261567181528
3	6703	370.875854021903	1.572904869545
3	6762	374.653324689783	3.77747066788
3	6770	375.525160775515	0.871836085732
3	6835	377.921173856094	2.396013080579
3	6987	387.942455445869	10.021281589775
3	6995	389.521915368619	1.57945992275
3	7022	389.69451498165	0.172599613031
3	7049	390.621398770211	0.926883788561
3	7141	395.055300490758	4.433901720547
3	7168	395.937090113907	0.881789623149
3	7184	396.938367556044	1.001277442137
3	7192	398.172126544955	1.233758988911
3	7219	399.769279492141	1.597152947186
3	7227	400.577331613896	0.808052121755
3	7262	401.969624516329	1.392292902433
3	7292	402.963495757925	0.993871241596
3	7401	409.226981798973	6.263486041048
3	7420	411.097503432728	1.870521633755
3	7436	412.030932980383	0.933429547655
3	7512	418.090039192695	6.059106212312
3	7569	421.330665401258	3.240626208563
3	7596	421.920980970989	0.590315569731
3	7604	421.960504525819	0.03952355483
3	7647	423.242092407471	1.281587881652
3	7736	426.923005007626	3.680912600155
3	7776	428.218238013621	1.295233005995
3	7833	433.502648116044	5.284410102423
3	7849	434.331777018858	0.829128902814
3	7930	441.029629498695	6.697852479837
3	8093	447.543247936156	6.513618437461
3	8109	448.620980704649	1.077732768493
3	8125	450.233577398889	1.61259669424
3	8133	450.321269084772	0.087691685883
3	8149	452.93133371629	2.610064631518
3	8280	460.479671324163	7.548337607873
3	8296	461.390195117396	0.910523793233
3	8342	465.437319710329	4.047124592933
3	8415	468.877243209556	3.439923499227
3	8667	489.24537163593	20.368128426374
3	8840	499.588041443387	10.342669807457
4	157	6.993381818912	6.993381818912
4	243	10.598937296904	3.605555477992
4	281	11.885894765385	1.286957468481
4	289	12.021749241141	0.135854475756
4	362	15.149970736051	3.12822149491
4	500	23.519121006136	8.369150270085
4	508	23.907455614069	0.388334607933
4	535	26.769629670279	2.86217405621
4	543	26.945971282121	0.176341611842
4	624	30.894484234886	3.948512952765
4	725	38.105670482768	7.211186247882
4	733	38.287520750881	0.181850268113
4	806	45.248804490292	6.961283739411
4	893	50.838571434297	5.589766944005
4	920	52.059583718262	1.221012283965
4	944	52.989557711112	0.92997399285
4	1014	58.702583053656	5.713025342544
4	1030	59.235132064292	0.532549010636
4	1087	62.242866481054	3.007734416762
4	1182	65.785266730263	3.542400249209
4	1198	66.998215651016	1.212948920753
4	1252	69.622730583254	2.624514932238
4	1287	70.576450410202	0.953719826948
4	1306	71.367595399092	0.79114498889
4	1449	81.849195335144	10.481599936052
4	1468	82.011324081317	0.162128746173
4	1625	92.861743609489	10.850419528172
4	1644	93.652007081469	0.79026347198
4	1674	94.331621872901	0.679614791432
4	1796	102.862012069038	8.530390196137
4	1872	107.860121967158	4.99810989812
4	1888	108.187915783762	0.327793816604
4	1896	108.464088834078	0.276173050316
4	1950	111.1716302847	2.707541450622
4	1969	111.378502390158	0.206872105458
4	2072	118.624813414622	7.246311024464
4	2102	120.854100911743	2.229287497121
4	2110	121.191849384533	0.33774847279
4	2148	123.322088008362	2.130238623829
4	2213	126.09376437502	2.771676366658
4	2221	126.433772584099	0.340008209079
4	2256	129.036485902585	2.602713318486
4	2400	138.188995071091	9.152509168506
4	2470	142.400592401701	4.21159733061
4	2505	144.876270744464	2.475678342763
4	2598	152.822519789164	7.9462490447
4	2711	154.966938752327	2.144418963163
4	2762	156.920772221573	1.953833469246
4	2770	157.403677173947	0.482904952374
4	2778	158.007231636552	0.603554462605
4	2786	158.661373175385	0.654141538833
4	2842	161.999517148752	3.338143973367
4	2915	164.949097912431	2.949580763679
4	2942	165.312972627584	0.363874715153
4	3077	169.350470700904	4.03749807332
4	3085	169.516053848109	0.165583147205
4	3101	170.67082681231	1.154772964201
4	3128	171.089281667513	0.418454855203
4	3171	173.175007140581	2.085725473068
4	3179	173.177723841021	0.00271670044
4	3236	177.269807964568	4.092084123547
4	3342	187.306712811291	10.036904846723
4	3423	193.417187792581	6.11047498129
4	3431	193.688210806336	0.271023013755
4	3482	196.708377376103	3.020166569767
4	3553	203.395518660914	6.687141284811
4	3580	204.365224836399	0.969706175485
4	3629	205.718045892096	1.352821055697
4	3637	206.381087625646	0.66304173355
4	3664	208.328607052298	1.947519426652
4	3713	210.550936819358	2.22232976706
4	3875	219.529688342887	8.978751523529
4	3921	221.494813802883	1.965125459996
4	3929	221.859525454141	0.364711651258
4	3937	221.994396981274	0.134871527133
4	3975	223.716904658887	1.722507677613
4	4099	227.455704615597	3.73879995671
4	4156	229.858660298202	2.402955682605
4	4164	230.824291379545	0.965631081343
4	4172	232.824298885949	2.000007506404
4	4229	237.128582744379	4.30428385843
4	4237	237.140905968475	0.012323224096
4	4278	241.189173832062	4.048267863587
4	4332	243.460149084092	2.27097525203
4	4367	245.040396393114	1.580247309022
4	4405	250.44863163992	5.408235246806
4	4432	251.329694057913	0.881062417993
4	4489	253.404644207189	2.074950149276
4	4592	259.08239532587	5.677751118681
4	4643	262.187316329897	3.104921004027
4	4673	265.233949987525	3.046633657628
4	4822	272.911896667027	7.677946679502
4	4841	273.576571500651	0.664674833624
4	4938	280.277593257496	6.701021756845
4	5003	283.482883890829	3.205290633333
4	5052	285.832193059674	2.349309168845
4	5251	293.583458179571	7.751265119897
4	5292	296.378993577576	2.795535398005
4	5311	297.95069968294	1.571706105364
4	5376	304.56486671943	6.61416703649
4	5568	311.902510618928	7.337643899498
4	5646	317.489606390848	5.58709577192
4	5654	318.472998280886	0.983391890038
4	5681	320.368816005507	1.895817724621
4	5733	321.919440201016	1.550624195509
4	5803	323.886211563921	1.966771362905
4	5830	324.362834938054	0.476623374133
4	5854	325.414481992065	1.051647054011
4	5862	325.897249359299	0.482767367234
4	5889	327.624421083397	1.727171724098
4	5927	329.83021793477	2.205796851373
4	5995	333.631372449722	3.801154514952
4	6057	338.182226775292	4.55085432557
4	6111	341.253854156524	3.071627381232
4	6176	343.968840598358	2.714986441834
4	6211	347.024898420353	3.056057821995
4	6298	351.73285245342	4.707954033067
4	6322	352.718296851134	0.985444397714
4	6341	352.957405602186	0.239108751052
4	6403	355.710974761679	2.753569159493
4	6446	358.994401521254	3.283426759575
4	6454	359.147660514244	0.15325899299
4	6478	361.204138007099	2.056477492855
4	6641	368.674523412818	7.470385405719
4	6695	370.284815200333	1.610291787515
4	6711	370.907006221838	0.622191021505
4	6743	372.03231963928	1.125313417442
4	6789	376.448709377824	4.416389738544
4	6895	383.485582078026	7.036872700202
4	6903	384.197341515585	0.711759437559
4	7041	390.094421378681	5.897079863096
4	7106	393.948882974068	3.854461595387
4	7114	394.257227647556	0.308344673488
4	7133	394.653557865855	0.396330218299
4	7176	396.434420637117	1.780862771262
4	7235	400.698792951659	4.264372314542
4	7344	405.920658924959	5.2218659733
4	7542	420.281286252259	14.3606273273
4	7550	420.57384282613	0.292556573871
4	7588	421.893757857674	1.319915031544
4	7655	423.546882162092	1.653124304418
4	7690	425.335841999523	1.788959837431
4	7709	426.020204023989	0.684362024466
4	7717	426.895589396358	0.875385372369
4	7744	427.570475470831	0.674886074473
4	7752	427.613711561233	0.043236090402
4	7768	427.963475357342	0.349763796109
4	7865	434.608614256402	6.64513889906
4	7881	435.856095702232	1.24748144583
4	8334	464.383464616361	28.527368914129
4	8407	468.488339057654	4.104874441293
4	8496	474.176478570771	5.688139513117
4	8580	479.191293456442	5.014814885671
4	8618	483.094789825172	3.90349636873
4	8626	484.913358944293	1.818569119121

