version 2
run General-1-20220514-10:32:52-8060
attr configname General
attr datetime 20220514-10:32:52
attr experiment General
attr inifile omnetpp.ini
attr iterationvars $0=0.2
attr iterationvarsf 0.2-
attr measurement $0=0.2
attr network Lab2
attr processid 8060
attr repetition 0
attr replication #0
attr resultdir results
attr runnumber 1
attr seedset 1
param **.sim_time 500s
param **.next_event_par 1.0/(0.2)
param **.pck_len_mean 1000
param **.pck_len_stddev 150
param **.pck_len_min 26
param **.pck_len_max 1480
param **.num_of_hosts 4
param **.host1.ipAddr.IP_addr 0
param **.host2.ipAddr.IP_addr 1
param **.host3.ipAddr.IP_addr 2
param **.host4.ipAddr.IP_addr 3
param **.arp_ttl 10s
param **.host1.eth.MAC_addr 0
param **.host2.eth.MAC_addr 1
param **.host3.eth.MAC_addr 2
param **.host4.eth.MAC_addr 3
param **.aging_time 1s

vector 0 Lab2.host2.eth interval:vector ETV
attr interpolationmode none
attr source interval
attr title "interval, vector"
vector 1 Lab2 delay:vector ETV
attr interpolationmode none
attr source delay
attr title "delay, vector"
vector 2 Lab2.host4.eth interval:vector ETV
attr interpolationmode none
attr source interval
attr title "interval, vector"
vector 3 Lab2.host1.eth interval:vector ETV
attr interpolationmode none
attr source interval
attr title "interval, vector"
vector 4 Lab2.host3.eth interval:vector ETV
attr interpolationmode none
attr source interval
attr title "interval, vector"
0	90	3.723746588685	3.723746588685
0	277	23.535498529057	19.811751940372
0	296	26.209282745155	2.673784216098
0	470	41.815780208959	15.606497463804
0	489	46.008059977729	4.19227976877
0	560	52.796868451958	6.788808474229
0	785	79.302121684096	26.505253232138
0	793	80.011453903372	0.709332219276
0	867	88.794158155921	8.782704252549
0	968	100.169427201356	11.375269045435
0	1317	147.997761105944	47.828333904588
0	1385	159.042619100356	11.044857994412
0	1602	178.273468358849	19.230849258493
0	1774	216.707014431149	38.4335460723
0	1834	226.090029987207	9.383015556058
0	1943	240.501832029172	14.411802041965
0	2008	243.714110088013	3.212278058841
0	2016	243.801818205325	0.087708117312
0	2024	244.660088009562	0.858269804237
0	2081	256.849616476935	12.189528467373
0	2493	320.806722843941	63.957106367006
0	2580	339.197834692854	18.391111848913
0	2607	343.169586963467	3.971752270613
0	2754	356.688784172719	13.519197209252
0	2819	363.011930509732	6.323146337013
0	3000	387.034599301264	24.022668791532
0	3041	391.122946462695	4.088347161431
0	3193	408.13558241385	17.012635951155
0	3223	411.085460421597	2.949878007747
0	3283	414.545334142428	3.459873720831
0	3553	454.742300695908	40.19696655348
0	3610	458.783763451662	4.041462755754
0	3640	461.753354068267	2.969590616605
0	3670	464.889765227259	3.136411158992
0	3828	485.610992037559	20.7212268103
1	90	3.723746588685	9.064e-005
1	98	6.3708266708	0.00010024
1	106	6.654834783155	7.968e-005
1	114	8.076304006123	9.368e-005
1	122	8.520676369079	8.104e-005
1	130	9.451280253871	6.976e-005
1	138	9.968879174649	5.584e-005
1	157	11.071954450616	9.224e-005
1	231	15.377277428201	8.856e-005
1	250	17.194579338529	6.976e-005
1	258	17.987988670321	8.048e-005
1	277	23.535498529057	6.312e-005
1	296	26.209282745155	0.0001016
1	359	31.032884074075	6.848e-005
1	378	34.407701944057	8.2e-005
1	397	36.25000229892	9.656e-005
1	416	37.201609203532	9.632e-005
1	446	39.838369858011	9.112e-005
1	454	39.847791114468	9.624e-005
1	462	40.762426723239	8.4e-005
1	470	41.815780208959	9.016e-005
1	489	46.008059977729	9.04e-005
1	541	50.825984986517	8.368e-005
1	560	52.796868451958	8.328e-005
1	568	56.530763818597	8.848e-005
1	598	57.861148613165	7.976e-005
1	639	65.103853953505	8.72e-005
1	647	65.29070993682	8.272e-005
1	655	65.331710710778	7.856e-005
1	674	66.569726619099	7.12e-005
1	693	68.175223559121	8.392e-005
1	701	68.657654891644	9.288e-005
1	709	68.9141963859	8.28e-005
1	717	70.642968441154	7.568e-005
1	758	75.168808310393	9.632e-005
1	766	75.747709443219	7.664e-005
1	785	79.302121684096	8.032e-005
1	793	80.011453903372	6.76e-005
1	867	88.794158155921	8.36e-005
1	886	90.291644773988	0.00010072
1	927	95.297384059262	6.712e-005
1	968	100.169427201356	7.912e-005
1	976	101.87444024003	7.024e-005
1	984	101.9501391741	8.744e-005
1	1058	118.720330569239	7.528e-005
1	1066	118.798625344963	8.472e-005
1	1085	118.901198824455	6.208e-005
1	1148	124.270844062282	9.048e-005
1	1156	124.666010877418	6.792e-005
1	1219	138.976093054751	8.232e-005
1	1238	140.993450301847	6.608e-005
1	1257	141.621133530224	8.04e-005
1	1298	145.977850251688	7.88e-005
1	1317	147.997761105944	0.00010032
1	1336	151.65731563343	9.712e-005
1	1377	157.280431904385	8.568e-005
1	1385	159.042619100356	6.696e-005
1	1426	162.274399576862	7.376e-005
1	1445	164.0207558518	7.736e-005
1	1453	164.86011404588	8.84e-005
1	1461	165.735987073085	7.784e-005
1	1469	166.273745549388	8.52e-005
1	1510	169.902130575313	8.72e-005
1	1529	172.792213421619	8.432e-005
1	1537	173.054634814626	6.448e-005
1	1556	174.962454707712	7.544e-005
1	1564	175.138374400633	7.792e-005
1	1594	177.468115602874	7.176e-005
1	1602	178.273468358849	4.704e-005
1	1621	184.495714929277	6.88e-005
1	1629	185.101670428754	8.96e-005
1	1670	194.894935085088	7.456e-005
1	1722	207.227910297565	7.592e-005
1	1774	216.707014431149	7.624e-005
1	1782	217.519800525962	6.048e-005
1	1834	226.090029987207	7.68e-005
1	1842	226.682582280939	9.784e-005
1	1883	234.28209140022	9.832e-005
1	1913	235.657598284766	8.432e-005
1	1943	240.501832029172	7.504e-005
1	1962	242.687304025141	0.0001076
1	1981	243.547388991387	7.528e-005
1	2000	243.614615561932	8.64e-005
1	2008	243.714110088013	6.024e-005
1	2016	243.801818205325	8.752e-005
1	2024	244.660088009562	8.56e-005
1	2032	244.773386138742	5.704e-005
1	2073	256.357571402944	8.888e-005
1	2081	256.849616476935	9.128e-005
1	2144	272.249326153023	7.688e-005
1	2163	277.844479615651	7.248e-005
1	2226	284.316948915795	9.032e-005
1	2234	286.697824508108	8.392e-005
1	2242	287.381545991632	8.328e-005
1	2261	289.585000725171	7.68e-005
1	2313	298.91296958502	8.792e-005
1	2321	299.596768305588	0.0001132
1	2373	305.960971362547	9.2e-005
1	2403	310.771031441537	7.752e-005
1	2455	317.756768656977	7.712e-005
1	2474	318.889709096507	7.264e-005
1	2493	320.806722843941	9.392e-005
1	2501	322.22997112362	9.352e-005
1	2564	336.103191429305	6.48e-005
1	2572	337.596004359	8.176e-005
1	2580	339.197834692854	7.128e-005
1	2599	341.757042004512	8.144e-005
1	2607	343.169586963467	8.4e-005
1	2659	346.477015470949	8.328e-005
1	2678	349.999904651504	0.0001008
1	2686	350.373700798289	6.92e-005
1	2705	351.941344453774	8.64e-005
1	2746	356.545390997806	8.008e-005
1	2754	356.688784172719	8.472e-005
1	2762	358.979444233816	9.264e-005
1	2781	361.01840161241	8.944e-005
1	2811	362.849502811564	6.16e-005
1	2819	363.011930509732	6.184e-005
1	2893	372.057265808082	6.912e-005
1	3000	387.034599301264	9.136e-005
1	3041	391.122946462695	0.00011672
1	3049	392.752125518927	8.64e-005
1	3057	394.266418053092	8.04e-005
1	3065	395.141314844795	7.76e-005
1	3095	398.006593723387	6.832e-005
1	3136	402.715809510582	9.016e-005
1	3177	404.846209922034	9.336e-005
1	3185	407.074524402158	7.128e-005
1	3193	408.13558241385	8.024e-005
1	3223	411.085460421597	8.44e-005
1	3231	413.38592871148	7.848e-005
1	3283	414.545334142428	0.00010656
1	3368	431.148465617372	8.48e-005
1	3387	433.32494962626	6.512e-005
1	3395	433.948131212872	0.00010208
1	3469	441.690630804245	9.24e-005
1	3488	444.28068292881	9.912e-005
1	3507	445.846907052103	8.896e-005
1	3515	446.622613385569	8.64e-005
1	3523	448.388276662148	8.304e-005
1	3553	454.742300695908	8.768e-005
1	3561	456.262825355076	8.136e-005
1	3580	457.552741749012	7.36e-005
1	3610	458.783763451662	8.44e-005
1	3640	461.753354068267	9.512e-005
1	3670	464.889765227259	7.024e-005
1	3689	472.561366074036	6.728e-005
1	3708	473.667369549684	8.144e-005
1	3760	478.816344614574	9.032e-005
1	3779	479.747634587889	8.992e-005
1	3820	482.829770152897	7.16e-005
1	3828	485.610992037559	8.248e-005
1	3836	487.443938475782	8.52e-005
1	3877	496.830025933618	8.192e-005
1	3896	499.702411715845	5.72e-005
2	98	6.3708266708	6.3708266708
2	157	11.071954450616	4.701127779816
2	639	65.103853953505	54.031899502889
2	701	68.657654891644	3.553800938139
2	717	70.642968441154	1.98531354951
2	1219	138.976093054751	68.333124613597
2	1336	151.65731563343	12.681222578679
2	1510	169.902130575313	18.244814941883
2	1564	175.138374400633	5.23624382532
2	1594	177.468115602874	2.329741202241
2	1670	194.894935085088	17.426819482214
2	1722	207.227910297565	12.332975212477
2	2163	277.844479615651	70.616569318086
2	2261	289.585000725171	11.74052110952
2	2321	299.596768305588	10.011767580417
2	2373	305.960971362547	6.364203056959
2	2564	336.103191429305	30.142220066758
2	2686	350.373700798289	14.270509368984
2	3095	398.006593723387	47.632892925098
2	3136	402.715809510582	4.709215787195
2	3177	404.846209922034	2.130400411452
2	3387	433.32494962626	28.478739704226
2	3523	448.388276662148	15.063327035888
2	3561	456.262825355076	7.874548692928
2	3689	472.561366074036	16.29854071896
2	3760	478.816344614574	6.254978540538
2	3836	487.443938475782	8.627593861208
2	3877	496.830025933618	9.386087457836
3	106	6.654834783155	6.654834783155
3	114	8.076304006123	1.421469222968
3	138	9.968879174649	1.892575168526
3	250	17.194579338529	7.22570016388
3	258	17.987988670321	0.793409331792
3	359	31.032884074075	13.044895403754
3	378	34.407701944057	3.374817869982
3	397	36.25000229892	1.842300354863
3	462	40.762426723239	4.512424424319
3	541	50.825984986517	10.063558263278
3	655	65.331710710778	14.505725724261
3	758	75.168808310393	9.837097599615
3	766	75.747709443219	0.578901132826
3	984	101.9501391741	26.202429730881
3	1148	124.270844062282	22.320704888182
3	1238	140.993450301847	16.722606239565
3	1426	162.274399576862	21.280949275015
3	1445	164.0207558518	1.746356274938
3	1461	165.735987073085	1.715231221285
3	1469	166.273745549388	0.537758476303
3	1529	172.792213421619	6.518467872231
3	1537	173.054634814626	0.262421393007
3	1556	174.962454707712	1.907819893086
3	1883	234.28209140022	59.319636692508
3	1913	235.657598284766	1.375506884546
3	2000	243.614615561932	7.957017277166
3	2226	284.316948915795	40.702333353863
3	2234	286.697824508108	2.380875592313
3	2242	287.381545991632	0.683721483524
3	2313	298.91296958502	11.531423593388
3	2474	318.889709096507	19.976739511487
3	2501	322.22997112362	3.340262027113
3	2572	337.596004359	15.36603323538
3	2659	346.477015470949	8.881011111949
3	2811	362.849502811564	16.372487340615
3	2893	372.057265808082	9.207762996518
3	3049	392.752125518927	20.694859710845
3	3057	394.266418053092	1.514292534165
3	3065	395.141314844795	0.874896791703
3	3231	413.38592871148	18.244613866685
3	3368	431.148465617372	17.762536905892
3	3395	433.948131212872	2.7996655955
3	3580	457.552741749012	23.60461053614
3	3708	473.667369549684	16.114627800672
3	3779	479.747634587889	6.080265038205
4	122	8.520676369079	8.520676369079
4	130	9.451280253871	0.930603884792
4	231	15.377277428201	5.92599717433
4	416	37.201609203532	21.824331775331
4	446	39.838369858011	2.636760654479
4	454	39.847791114468	0.009421256457
4	568	56.530763818597	16.682972704129
4	598	57.861148613165	1.330384794568
4	647	65.29070993682	7.429561323655
4	674	66.569726619099	1.279016682279
4	693	68.175223559121	1.605496940022
4	709	68.9141963859	0.738972826779
4	886	90.291644773988	21.377448388088
4	927	95.297384059262	5.005739285274
4	976	101.87444024003	6.577056180768
4	1058	118.720330569239	16.845890329209
4	1066	118.798625344963	0.078294775724
4	1085	118.901198824455	0.102573479492
4	1156	124.666010877418	5.764812052963
4	1257	141.621133530224	16.955122652806
4	1298	145.977850251688	4.356716721464
4	1377	157.280431904385	11.302581652697
4	1453	164.86011404588	7.579682141495
4	1621	184.495714929277	19.635600883397
4	1629	185.101670428754	0.605955499477
4	1782	217.519800525962	32.418130097208
4	1842	226.682582280939	9.162781754977
4	1962	242.687304025141	16.004721744202
4	1981	243.547388991387	0.860084966246
4	2032	244.773386138742	1.225997147355
4	2073	256.357571402944	11.584185264202
4	2144	272.249326153023	15.891754750079
4	2403	310.771031441537	38.521705288514
4	2455	317.756768656977	6.98573721544
4	2599	341.757042004512	24.000273347535
4	2678	349.999904651504	8.242862646992
4	2705	351.941344453774	1.94143980227
4	2746	356.545390997806	4.604046544032
4	2762	358.979444233816	2.43405323601
4	2781	361.01840161241	2.038957378594
4	3185	407.074524402158	46.056122789748
4	3469	441.690630804245	34.616106402087
4	3488	444.28068292881	2.590052124565
4	3507	445.846907052103	1.566224123293
4	3515	446.622613385569	0.775706333466
4	3820	482.829770152897	36.207156767328
4	3896	499.702411715845	16.872641562948

