version 2
run General-5-20220514-10:33:34-3504
attr configname General
attr datetime 20220514-10:33:34
attr experiment General
attr inifile omnetpp.ini
attr iterationvars $0=0.6
attr iterationvarsf 0.6-
attr measurement $0=0.6
attr network Lab2
attr processid 3504
attr repetition 0
attr replication #0
attr resultdir results
attr runnumber 5
attr seedset 5
param **.sim_time 500s
param **.next_event_par 1.0/(0.6)
param **.pck_len_mean 1000
param **.pck_len_stddev 150
param **.pck_len_min 26
param **.pck_len_max 1480
param **.num_of_hosts 4
param **.host1.ipAddr.IP_addr 0
param **.host2.ipAddr.IP_addr 1
param **.host3.ipAddr.IP_addr 2
param **.host4.ipAddr.IP_addr 3
param **.arp_ttl 10s
param **.host1.eth.MAC_addr 0
param **.host2.eth.MAC_addr 1
param **.host3.eth.MAC_addr 2
param **.host4.eth.MAC_addr 3
param **.aging_time 1s

vector 0 Lab2.host2.eth interval:vector ETV
attr interpolationmode none
attr source interval
attr title "interval, vector"
vector 1 Lab2 delay:vector ETV
attr interpolationmode none
attr source delay
attr title "delay, vector"
vector 2 Lab2.host1.eth interval:vector ETV
attr interpolationmode none
attr source interval
attr title "interval, vector"
vector 3 Lab2.host4.eth interval:vector ETV
attr interpolationmode none
attr source interval
attr title "interval, vector"
vector 4 Lab2.host3.eth interval:vector ETV
attr interpolationmode none
attr source interval
attr title "interval, vector"
0	90	1.812730601112	1.812730601112
0	179	5.456722760915	3.643992159803
0	195	6.726774715802	1.270051954887
0	203	7.289687200813	0.562912485011
0	211	7.614836921019	0.325149720206
0	227	8.220770352805	0.605933431786
0	316	12.964968591948	4.744198239143
0	403	15.61260331943	2.647634727482
0	446	17.516378443273	1.903775123843
0	538	22.414100507721	4.897722064448
0	597	24.330369202437	1.916268694716
0	646	27.56812747829	3.237758275853
0	673	28.998108963536	1.429981485246
0	781	34.121131493346	5.12302252981
0	846	36.532163222625	2.411031729279
0	892	39.931153993913	3.398990771288
0	970	42.756659202867	2.825505208954
0	1002	44.860195802023	2.103536599156
0	1029	45.525789943861	0.665594141838
0	1092	49.100582536932	3.574792593071
0	1108	49.6185367646	0.517954227668
0	1132	51.245306957332	1.626770192732
0	1140	51.963797575983	0.718490618651
0	1148	52.289444951929	0.325647375946
0	1156	52.572850441422	0.283405489493
0	1183	53.749871664644	1.177021223222
0	1191	54.295008669752	0.545137005108
0	1199	54.376540363431	0.081531693679
0	1237	55.493351368325	1.116811004894
0	1261	56.951557446114	1.458206077789
0	1296	58.028797012171	1.077239566057
0	1315	58.582574383376	0.553777371205
0	1435	64.505272232846	5.92269784947
0	1459	65.628914785864	1.123642553018
0	1518	68.090314346681	2.461399560817
0	1580	71.083783518126	2.993469171445
0	1607	72.626763627976	1.54298010985
0	1667	73.976290577972	1.349526949996
0	1686	74.673391989616	0.697101411644
0	1702	75.344617423618	0.671225434002
0	1810	81.291283851703	5.946666428085
0	1818	81.457722748394	0.166438896691
0	1837	82.088076972959	0.630354224565
0	1891	83.543786017666	1.455709044707
0	1899	83.787021062184	0.243235044518
0	2026	88.842045711241	5.055024649057
0	2115	93.487924337639	4.645878626398
0	2161	97.863089927449	4.37516558981
0	2294	104.11394086948	6.250850942031
0	2321	105.406474244473	1.292533374993
0	2345	105.917448839754	0.510974595281
0	2353	105.932201149241	0.014752309487
0	2361	106.93117208105	0.998970931809
0	2626	121.927170437349	14.995998356299
0	2669	122.695332482444	0.768162045095
0	2775	128.884701053985	6.189368571541
0	2939	135.55370137033	6.669000316345
0	2982	137.215739647763	1.662038277433
0	2990	137.800828013491	0.585088365728
0	2998	138.566637082312	0.765809068821
0	3006	138.698259929833	0.131622847521
0	3055	139.653915335469	0.955655405636
0	3074	142.215885041872	2.561969706403
0	3090	142.611523076542	0.39563803467
0	3109	144.991163228877	2.379640152335
0	3144	145.50084400267	0.509680773793
0	3152	145.85340973134	0.35256572867
0	3171	146.867283758885	1.013874027545
0	3201	147.752895923436	0.885612164551
0	3239	148.840583133565	1.087687210129
0	3277	150.525522784567	1.684939651002
0	3317	153.036902933195	2.511380148628
0	3333	154.302649456727	1.265746523532
0	3390	156.697516666354	2.394867209627
0	3417	158.882725995799	2.185209329445
0	3477	161.62809469474	2.745368698941
0	3723	173.396642407037	11.768547712297
0	3747	174.045382714677	0.64874030764
0	3943	180.041870061213	5.996487346536
0	3973	181.740592620923	1.69872255971
0	4049	184.578095296067	2.837502675144
0	4124	187.293360201903	2.715264905836
0	4159	189.026370346989	1.733010145086
0	4202	190.37427475555	1.347904408561
0	4218	191.182425834462	0.808151078912
0	4420	197.732123574027	6.549697739565
0	4555	203.073189477013	5.341065902986
0	4587	205.935589292392	2.862399815379
0	4671	210.899146847682	4.96355755529
0	4831	219.410091108841	8.510944261159
0	4847	220.087121377701	0.67703026886
0	4866	220.939097448249	0.851976070548
0	4890	222.495097327929	1.55599987968
0	4898	222.85901673206	0.363919404131
0	4936	225.427569641731	2.568552909671
0	5163	237.144922001617	11.717352359886
0	5190	238.323149030116	1.178227028499
0	5217	239.745802543337	1.422653513221
0	5282	242.772537555444	3.026735012107
0	5325	245.718977119753	2.946439564309
0	5393	248.763155748769	3.044178629016
0	5468	252.797425743231	4.034269994462
0	5487	253.523562454665	0.726136711434
0	5522	255.125289564202	1.601727109537
0	5576	259.23451731611	4.109227751908
0	5638	263.887506163119	4.652988847009
0	5709	268.165056443654	4.277550280535
0	5779	270.163445548484	1.99838910483
0	5868	274.926066520977	4.762620972493
0	5876	274.989645567194	0.063579046217
0	5925	277.034770150449	2.045124583255
0	5933	277.584261901744	0.549491751295
0	5976	278.629897052736	1.045635150992
0	6019	281.027971299452	2.398074246716
0	6035	281.861338920717	0.833367621265
0	6051	282.431832625656	0.570493704939
0	6119	284.953311542275	2.521478916619
0	6154	287.313804845701	2.360493303426
0	6178	289.042264963988	1.728460118287
0	6238	292.065354349148	3.02308938516
0	6257	292.923600585319	0.858246236171
0	6273	294.277839095321	1.354238510002
0	6338	295.522662238438	1.244823143117
0	6381	298.039865463212	2.517203224774
0	6465	302.049744657177	4.009879193965
0	6552	306.558707286428	4.508962629251
0	6560	307.085394002484	0.526686716056
0	6576	307.588582737675	0.503188735191
0	6611	308.666247864161	1.077665126486
0	6627	310.814457263619	2.148209399458
0	6676	313.827163077186	3.012705813567
0	6692	314.80003183853	0.972868761344
0	6730	316.445890065791	1.645858227261
0	6768	318.888173961654	2.442283895863
0	6776	319.084588177492	0.196414215838
0	6795	319.628437417534	0.543849240042
0	6803	319.638637711219	0.010200293685
0	6827	320.927394576724	1.288756865505
0	7100	333.651319292691	12.723924715967
0	7140	334.983727590662	1.332408297971
0	7164	336.253009460622	1.26928186996
0	7362	346.172808865825	9.919799405203
0	7408	347.589580370706	1.416771504881
0	7459	349.788229012445	2.198648641739
0	7507	352.457139327406	2.668910314961
0	7553	353.833454497341	1.376315169935
0	7572	354.262585750647	0.429131253306
0	7580	355.172832612062	0.910246861415
0	7713	361.509608706006	6.336776093944
0	7729	361.764230016014	0.254621310008
0	7761	363.122834804678	1.358604788664
0	7785	364.692404623623	1.569569818945
0	7942	370.5730121295	5.880607505877
0	8226	388.04486424081	17.47185211131
0	8242	389.142084772769	1.097220531959
0	8280	392.862249098486	3.720164325717
0	8356	397.824780404767	4.962531306281
0	8364	398.322112386689	0.497331981922
0	8380	398.766875650284	0.444763263595
0	8426	400.095280033716	1.328404383432
0	8434	400.288951057914	0.193671024198
0	8701	411.348074309126	11.059123251212
0	8709	411.436193044899	0.088118735773
0	8725	411.762346476096	0.326153431197
0	8733	411.907907444178	0.145560968082
0	8785	415.610791328442	3.702883884264
0	8831	417.275876081764	1.665084753322
0	8839	417.391555101249	0.115679019485
0	8847	418.236655125558	0.845100024309
0	8904	419.24726871399	1.010613588432
0	8952	421.549043919254	2.301775205264
0	8984	422.59689654382	1.047852624566
0	9082	427.94906689259	5.35217034877
0	9098	429.176019724693	1.226952832103
0	9106	429.227770021328	0.051750296635
0	9244	437.369039284034	8.141269262706
0	9260	439.339123033286	1.970083749252
0	9290	440.154480504899	0.815357471613
0	9420	444.544275787155	4.389795282256
0	9439	445.524957856891	0.980682069736
0	9490	447.500484856372	1.975526999481
0	9538	449.198128369479	1.697643513107
0	9611	454.655643241617	5.457514872138
0	9671	457.993293618182	3.337650376565
0	9698	459.464407688761	1.471114070579
0	9849	466.190550296162	6.726142607401
0	9865	466.354589809784	0.164039513622
0	9946	469.842797288525	3.488207478741
0	10019	472.89212029229	3.049323003765
0	10319	488.545468590016	15.653348297726
0	10338	489.54161501509	0.996146425074
0	10354	489.614698404632	0.073083389542
0	10373	490.613416704643	0.998718300011
1	90	1.812730601112	6.488e-005
1	109	2.523630471295	8.976e-005
1	117	3.011105186963	9.56e-005
1	136	3.409961656587	8.928e-005
1	155	4.426914885675	6.6e-005
1	163	4.46563587432	9.304e-005
1	171	4.631299987036	6.744e-005
1	179	5.456722760915	8.776e-005
1	187	6.422612675155	8.864e-005
1	195	6.726774715802	6.616e-005
1	203	7.289687200813	7.8e-005
1	211	7.614836921019	7.104e-005
1	219	8.171554519998	9.152e-005
1	227	8.220770352805	7.968e-005
1	235	8.410810817073	9e-005
1	243	8.417726899619	8.408e-005
1	251	8.962786130822	7.384e-005
1	270	9.540480773433	9.04e-005
1	278	9.770028512924	6.984e-005
1	297	11.093481829277	8.824e-005
1	316	12.964968591948	8.336e-005
1	357	14.104685152717	5.96e-005
1	387	15.105806076321	8.832e-005
1	395	15.314112361233	7.032e-005
1	403	15.61260331943	6.792e-005
1	411	16.598734898035	6.008e-005
1	419	16.63314430121	9.632e-005
1	438	17.307466732845	8.152e-005
1	446	17.516378443273	6.288e-005
1	465	18.18898247404	8.224e-005
1	484	18.548551583165	9.496e-005
1	492	19.468346157556	0.00010392
1	522	21.917240864501	6.52e-005
1	530	22.002971199681	7.848e-005
1	538	22.414100507721	8.632e-005
1	546	22.459598742967	8.904e-005
1	554	22.697168605806	7.16e-005
1	562	23.167305758485	8.256e-005
1	570	23.208607438275	8.344e-005
1	589	23.387914285726	9.32e-005
1	597	24.330369202437	8.872e-005
1	627	27.419093698996	7.072e-005
1	646	27.56812747829	6.496e-005
1	665	28.467042690606	7.872e-005
1	673	28.998108963536	6.168e-005
1	681	29.715443748146	8.088e-005
1	689	30.11074098301	8.976e-005
1	719	32.411740070585	7.784e-005
1	749	33.051201727975	8.04e-005
1	757	33.483975778769	8.656e-005
1	765	33.650142980436	7.352e-005
1	773	34.009075850962	4.48e-005
1	781	34.121131493346	9.264e-005
1	789	35.182928046053	9.168e-005
1	808	36.111238149628	9.784e-005
1	838	36.428393802295	7.672e-005
1	846	36.532163222625	7.368e-005
1	865	37.657661077827	8.784e-005
1	873	38.29645958277	8.984e-005
1	892	39.931153993913	8.384e-005
1	900	39.985743021776	0.0001168
1	908	40.631382969285	7.456e-005
1	916	40.84396518376	5.656e-005
1	924	41.394450909643	8.312e-005
1	932	41.64072174149	9.408e-005
1	940	42.322792019391	8.632e-005
1	970	42.756659202867	7.792e-005
1	978	43.40777166384	6.896e-005
1	986	43.448835520147	7.136e-005
1	994	44.859027821314	6.392e-005
1	1002	44.860195802023	9.024e-005
1	1021	45.181767011262	8.56e-005
1	1029	45.525789943861	8.704e-005
1	1092	49.100582536932	8.752e-005
1	1100	49.262177309065	8.888e-005
1	1108	49.6185367646	8.744e-005
1	1116	49.838790554706	7.048e-005
1	1124	50.1784685018	9.856e-005
1	1132	51.245306957332	7.176e-005
1	1140	51.963797575983	0.00010104
1	1148	52.289444951929	7.656e-005
1	1156	52.572850441422	7.464e-005
1	1164	52.714799633488	8.72e-005
1	1183	53.749871664644	8.28e-005
1	1191	54.295008669752	8.032e-005
1	1199	54.376540363431	8.328e-005
1	1207	54.474336901166	7.96e-005
1	1237	55.493351368325	7e-005
1	1245	56.318555804812	7.576e-005
1	1253	56.491308536039	9.76e-005
1	1261	56.951557446114	5.704e-005
1	1269	57.016784064692	9.008e-005
1	1277	57.303118824188	9.48e-005
1	1296	58.028797012171	8.016e-005
1	1315	58.582574383376	8.64e-005
1	1367	60.319408082038	9.256e-005
1	1408	62.720166168328	6.152e-005
1	1416	62.98198126582	0.00011104
1	1435	64.505272232846	8.552e-005
1	1443	64.9824687549	7.312e-005
1	1451	65.06870051767	7.912e-005
1	1459	65.628914785864	6.936e-005
1	1467	65.760569790443	8.984e-005
1	1475	65.825303409343	8.136e-005
1	1483	66.867810335212	7.768e-005
1	1491	66.878941088952	7.488e-005
1	1499	67.664721416595	7.376e-005
1	1518	68.090314346681	9.4e-005
1	1548	69.337424543733	9.208e-005
1	1556	69.351436106293	7.296e-005
1	1564	70.253237566989	6.272e-005
1	1572	70.380884464285	0.00010416
1	1580	71.083783518126	7.384e-005
1	1599	71.174875517906	9.312e-005
1	1607	72.626763627976	9.456e-005
1	1659	73.65023882145	9.152e-005
1	1667	73.976290577972	8.224e-005
1	1686	74.673391989616	8.376e-005
1	1694	75.140716179906	7.376e-005
1	1702	75.344617423618	8.936e-005
1	1721	75.990967004039	9.624e-005
1	1729	76.204511818036	8.552e-005
1	1748	79.049725642917	8.008e-005
1	1756	79.080688939051	5.768e-005
1	1786	79.556359416566	7.144e-005
1	1794	79.854742599984	8.8e-005
1	1802	80.746417075375	9.424e-005
1	1810	81.291283851703	7.44e-005
1	1818	81.457722748394	9.088e-005
1	1837	82.088076972959	7.704e-005
1	1845	82.16221829818	9.168e-005
1	1853	83.129577934572	9.52e-005
1	1872	83.481024826562	7.48e-005
1	1891	83.543786017666	8.144e-005
1	1899	83.787021062184	7.08e-005
1	1918	83.834932860567	8.168e-005
1	1926	83.892147926844	8.128e-005
1	1934	84.392162728098	8.048e-005
1	1942	84.626674635694	8.144e-005
1	1961	86.636668331743	9.056e-005
1	1969	86.856675880876	9.184e-005
1	1988	87.631475989059	8.44e-005
1	1996	88.047947600859	6.744e-005
1	2026	88.842045711241	8.936e-005
1	2045	89.700391530494	7.304e-005
1	2053	89.795103694288	5.232e-005
1	2072	92.119444259631	8.216e-005
1	2080	92.594491846018	0.0001116
1	2099	93.177280533457	7.888e-005
1	2107	93.250408279973	0.00010176
1	2115	93.487924337639	8.832e-005
1	2134	94.241380585475	8.184e-005
1	2142	97.310431325643	8.24e-005
1	2161	97.863089927449	7.784e-005
1	2169	98.326578319426	8.352e-005
1	2188	99.145064221033	8.856e-005
1	2218	100.457735005855	9.104e-005
1	2237	100.591294435384	5.32e-005
1	2267	102.787437083115	8.68e-005
1	2286	104.07302162301	7.8e-005
1	2294	104.11394086948	6.896e-005
1	2313	105.220022319935	7.528e-005
1	2321	105.406474244473	7.352e-005
1	2329	105.410712883198	8.536e-005
1	2337	105.627624733774	8.392e-005
1	2345	105.917448839754	0.00010128
1	2353	105.932201149241	9.072e-005
1	2361	106.93117208105	6.88e-005
1	2369	107.901513288212	0.00011016
1	2388	109.8014043423	8.456e-005
1	2396	110.558330964212	7.976e-005
1	2448	112.255978409086	8.272e-005
1	2456	112.464394631886	7.208e-005
1	2475	112.882069299309	7.384e-005
1	2483	113.468866351315	8.76e-005
1	2535	117.104510513197	6.792e-005
1	2543	117.828254732456	9.664e-005
1	2551	118.22703517599	7.992e-005
1	2559	119.498472193471	6.48e-005
1	2567	120.078586350748	8.328e-005
1	2586	121.025240747619	8.6e-005
1	2594	121.358142857144	9.584e-005
1	2602	121.396223891504	7.952e-005
1	2610	121.681887549821	7.44e-005
1	2618	121.818957602266	8.024e-005
1	2626	121.927170437349	8.072e-005
1	2634	122.062095072876	8.584e-005
1	2653	122.129187316082	7.824e-005
1	2661	122.187102396442	7.312e-005
1	2669	122.695332482444	7.92e-005
1	2677	125.940993750809	8.736e-005
1	2685	126.826233283099	8.264e-005
1	2726	127.334496108471	7.944e-005
1	2767	128.638533891628	8.712e-005
1	2775	128.884701053985	7.056e-005
1	2783	129.489423637266	8.48e-005
1	2791	129.879369921473	6.136e-005
1	2810	130.709636878038	6.232e-005
1	2818	130.838886505888	7.832e-005
1	2848	132.148622196643	6.024e-005
1	2856	132.679391307632	9.24e-005
1	2875	133.034683238277	7.104e-005
1	2883	133.295082071051	8.368e-005
1	2891	133.543148136266	8.592e-005
1	2899	133.806403638389	7.752e-005
1	2907	133.877275915925	8.856e-005
1	2915	134.476429854523	9.768e-005
1	2923	134.682868918025	0.000102
1	2931	135.265829437481	7.968e-005
1	2939	135.55370137033	8.576e-005
1	2947	135.609411657158	7.752e-005
1	2955	136.259265706727	5.632e-005
1	2963	136.53754595064	7.056e-005
1	2982	137.215739647763	6.872e-005
1	2990	137.800828013491	9.616e-005
1	2998	138.566637082312	9.144e-005
1	3006	138.698259929833	7.944e-005
1	3047	139.488749438096	7.64e-005
1	3055	139.653915335469	7.712e-005
1	3074	142.215885041872	7.616e-005
1	3082	142.223834572015	8.936e-005
1	3090	142.611523076542	8.928e-005
1	3109	144.991163228877	7.128e-005
1	3128	145.245233609468	7.672e-005
1	3136	145.446625859495	7.184e-005
1	3144	145.50084400267	7.904e-005
1	3152	145.85340973134	8.664e-005
1	3171	146.867283758885	8.376e-005
1	3201	147.752895923436	0.00010024
1	3231	148.434285978992	6.456e-005
1	3239	148.840583133565	9.112e-005
1	3258	149.134461725261	7.336e-005
1	3277	150.525522784567	7.544e-005
1	3285	150.538009481379	8.288e-005
1	3293	151.404696938649	0.00010312
1	3301	151.936964905691	8.288e-005
1	3309	152.46342849599	9.76e-005
1	3317	153.036902933195	6.688e-005
1	3325	153.267784745811	0.00010488
1	3333	154.302649456727	7.656e-005
1	3374	155.285105766902	7.536e-005
1	3382	156.513367264923	8.8e-005
1	3390	156.697516666354	7.312e-005
1	3398	156.804411919317	5.904e-005
1	3417	158.882725995799	8.216e-005
1	3458	160.834779690449	8.328e-005
1	3477	161.62809469474	8.536e-005
1	3485	162.130572803371	8.824e-005
1	3493	163.080223456996	8.472e-005
1	3501	163.183923616707	8.792e-005
1	3509	163.244535399504	9.672e-005
1	3517	163.639224745539	9.216e-005
1	3525	164.862561672792	8.648e-005
1	3533	165.662834215589	7.808e-005
1	3552	166.201893186174	9.592e-005
1	3560	166.476875909778	9.264e-005
1	3568	167.209307851803	0.0001028
1	3642	170.345150929555	8.472e-005
1	3650	170.724255560695	0.00011768
1	3680	172.315780843847	8.952e-005
1	3688	172.50398329939	8.52e-005
1	3696	173.12389385367	8.584e-005
1	3715	173.395655875595	6.224e-005
1	3723	173.396642407037	9.752e-005
1	3731	173.686175258605	7.112e-005
1	3739	173.904955408324	0.00010752
1	3747	174.045382714677	9.128e-005
1	3755	174.074770607168	8.568e-005
1	3763	174.75780153464	8.544e-005
1	3771	174.910174220087	9.264e-005
1	3779	174.94730266184	8.96e-005
1	3798	175.056459308276	8.896e-005
1	3806	175.869444997165	9.216e-005
1	3814	175.876455884999	8.632e-005
1	3833	176.886552332842	8.84e-005
1	3841	177.097344686075	8.64e-005
1	3871	178.051518523061	6.336e-005
1	3879	178.109180259357	8.144e-005
1	3887	178.839845711323	8.536e-005
1	3895	178.845356589671	7.752e-005
1	3903	178.987116951638	7.28e-005
1	3911	179.030206083051	6.56e-005
1	3919	179.172761243563	6.64e-005
1	3927	179.276452030043	5.664e-005
1	3935	179.731294276608	9.248e-005
1	3943	180.041870061213	8.272e-005
1	3973	181.740592620923	0.00010264
1	3981	181.753908514402	7.816e-005
1	4011	183.735026449702	9.752e-005
1	4030	184.244828291896	7.864e-005
1	4049	184.578095296067	8.04e-005
1	4057	184.679498900968	8.144e-005
1	4065	184.726002467187	9.488e-005
1	4073	184.748420333478	7.76e-005
1	4081	185.098203295241	6.064e-005
1	4089	185.817125141954	0.00010072
1	4097	186.023843276347	6.288e-005
1	4105	186.865002712733	8.456e-005
1	4124	187.293360201903	8.808e-005
1	4132	188.196900656741	6.808e-005
1	4151	188.788507112308	7.048e-005
1	4159	189.026370346989	5.32e-005
1	4167	189.478436730685	6.224e-005
1	4186	190.219339880765	0.00011096
1	4194	190.291217803459	7.448e-005
1	4202	190.37427475555	8.472e-005
1	4210	190.401704653813	8.816e-005
1	4218	191.182425834462	7.768e-005
1	4226	191.458904088448	6.616e-005
1	4234	192.044014129705	7.328e-005
1	4242	192.502465300541	6.88e-005
1	4250	192.755022004615	7.424e-005
1	4258	192.758838151466	7.736e-005
1	4299	194.391042196835	7.144e-005
1	4318	195.390886236108	7.832e-005
1	4326	195.560341622393	8.52e-005
1	4345	195.890597701918	8.776e-005
1	4353	196.201971983885	7.664e-005
1	4361	196.253567940932	8.688e-005
1	4369	196.733742657288	7.296e-005
1	4377	196.97831909928	9.272e-005
1	4385	197.082556939097	8.472e-005
1	4404	197.16732147291	9.112e-005
1	4412	197.602456992201	9.28e-005
1	4420	197.732123574027	9.12e-005
1	4428	198.205626092059	9.704e-005
1	4447	198.539754358091	7.392e-005
1	4455	198.859687634788	8.36e-005
1	4474	199.242240644822	7.968e-005
1	4482	199.259282437023	6.648e-005
1	4501	199.887524730821	6.912e-005
1	4520	200.974498193422	8.232e-005
1	4528	201.28057429138	7.912e-005
1	4547	202.451405057729	8.504e-005
1	4555	203.073189477013	8.864e-005
1	4563	203.377601720173	8.696e-005
1	4571	203.784219389509	8.896e-005
1	4579	205.528156732632	9.088e-005
1	4587	205.935589292392	9.272e-005
1	4595	206.456702615642	8.408e-005
1	4603	206.932532635087	5.856e-005
1	4644	210.023924844566	7.952e-005
1	4652	210.690437443203	6.336e-005
1	4671	210.899146847682	7.528e-005
1	4679	211.336037868118	7.4e-005
1	4720	213.867066990927	8.48e-005
1	4728	214.721794426377	7.8e-005
1	4736	214.801830122327	9.464e-005
1	4744	215.314458900974	9.496e-005
1	4763	215.829066552988	9.384e-005
1	4771	215.947685036206	9.04e-005
1	4812	218.340110365518	8.52e-005
1	4831	219.410091108841	6.416e-005
1	4839	219.422700517585	6.384e-005
1	4847	220.087121377701	8.888e-005
1	4866	220.939097448249	8.6e-005
1	4874	221.84698304935	5.952e-005
1	4882	221.937510125672	8.304e-005
1	4890	222.495097327929	8.488e-005
1	4898	222.85901673206	9.72e-005
1	4928	225.061400383743	9.496e-005
1	4936	225.427569641731	8.056e-005
1	4944	226.023792873487	7.552e-005
1	4963	226.477666235689	7.704e-005
1	4982	227.072766795648	7.52e-005
1	5001	228.096765709175	8.504e-005
1	5020	229.061628010868	8.848e-005
1	5039	229.616901144188	8.44e-005
1	5047	230.636892022255	8.456e-005
1	5066	232.234198030778	8.16e-005
1	5074	232.613171476418	8.528e-005
1	5082	232.728778459058	8.2e-005
1	5090	233.074182435594	9.944e-005
1	5098	233.450710425203	9.408e-005
1	5106	234.06695529219	0.00010792
1	5114	234.690950169142	8.816e-005
1	5155	236.381624487603	5.76e-005
1	5163	237.144922001617	8.552e-005
1	5171	237.309302726109	5.952e-005
1	5190	238.323149030116	6.888e-005
1	5209	239.237328198994	8.072e-005
1	5217	239.745802543337	9.24e-005
1	5225	240.518847255768	6.888e-005
1	5244	241.459032034963	7.08e-005
1	5274	242.655630207171	8.184e-005
1	5282	242.772537555444	0.00010432
1	5290	242.776262834066	7.912e-005
1	5298	243.284355166256	9.976e-005
1	5317	244.63443501785	7.976e-005
1	5325	245.718977119753	8.208e-005
1	5344	246.705974141243	8.656e-005
1	5363	246.936999889209	8.248e-005
1	5393	248.763155748769	6.848e-005
1	5412	250.448182939385	7.848e-005
1	5420	250.869540754739	7.8e-005
1	5428	251.106071526314	7.872e-005
1	5436	251.264583705152	8.672e-005
1	5444	251.300368812088	6.208e-005
1	5452	251.474055171585	7.984e-005
1	5460	251.723715353773	8.808e-005
1	5468	252.797425743231	8.616e-005
1	5487	253.523562454665	5.608e-005
1	5495	253.698469226032	8.064e-005
1	5514	254.630187165304	9.064e-005
1	5522	255.125289564202	8.304e-005
1	5541	255.961722157268	8.872e-005
1	5560	258.897647027434	8.416e-005
1	5568	259.166326494766	8.544e-005
1	5576	259.23451731611	0.00010432
1	5595	260.801686482432	8.88e-005
1	5603	262.184916349378	9.296e-005
1	5622	263.388555182521	8.448e-005
1	5630	263.772438145011	8.384e-005
1	5638	263.887506163119	8.88e-005
1	5668	265.858780140532	9.392e-005
1	5709	268.165056443654	7.592e-005
1	5717	268.455318451255	8.664e-005
1	5736	268.9240863185	8e-005
1	5755	269.716946217983	9.616e-005
1	5763	269.869743844768	8.456e-005
1	5771	269.961278699541	7.68e-005
1	5779	270.163445548484	5.768e-005
1	5787	270.778069505999	7.912e-005
1	5806	271.30661273104	7.784e-005
1	5814	271.694028590914	9.256e-005
1	5844	273.063520333732	7.672e-005
1	5852	273.686504571298	8.104e-005
1	5860	274.629097830128	4.864e-005
1	5868	274.926066520977	6.512e-005
1	5876	274.989645567194	7.52e-005
1	5917	276.263252973474	9.008e-005
1	5925	277.034770150449	9.832e-005
1	5933	277.584261901744	7.432e-005
1	5941	277.943269851782	9.904e-005
1	5960	278.359800810096	7.552e-005
1	5968	278.379966428517	8.232e-005
1	5976	278.629897052736	7.168e-005
1	5995	280.116887040664	7.432e-005
1	6003	280.270952277276	8.304e-005
1	6011	280.877886351042	9.144e-005
1	6019	281.027971299452	9.392e-005
1	6027	281.786614727854	0.00010448
1	6035	281.861338920717	7.864e-005
1	6043	282.025647147033	8.216e-005
1	6051	282.431832625656	5.664e-005
1	6070	282.838101613508	7.472e-005
1	6100	284.720623790896	8.12e-005
1	6119	284.953311542275	8.752e-005
1	6127	285.057494199099	9.76e-005
1	6146	287.311910685632	6.576e-005
1	6154	287.313804845701	0.00010248
1	6162	287.510858208676	7.784e-005
1	6170	288.074768011994	8.536e-005
1	6178	289.042264963988	8.104e-005
1	6208	290.557614990277	0.00010008
1	6238	292.065354349148	9.08e-005
1	6257	292.923600585319	0.00011568
1	6265	293.197793469115	9.784e-005
1	6273	294.277839095321	8.456e-005
1	6281	294.424703489439	8.016e-005
1	6300	294.730961188977	6.632e-005
1	6319	295.057453913058	8.368e-005
1	6338	295.522662238438	8.256e-005
1	6357	296.696118858957	7.976e-005
1	6365	297.231882244996	0.00010056
1	6373	297.908240589439	8.32e-005
1	6381	298.039865463212	8.416e-005
1	6411	300.00687572582	8.576e-005
1	6419	300.787644177032	8.128e-005
1	6438	301.770523704755	9e-005
1	6457	301.920312888529	7.448e-005
1	6465	302.049744657177	7.184e-005
1	6484	303.351172449553	9.656e-005
1	6503	304.223812136526	5.504e-005
1	6511	304.4409525652	9.696e-005
1	6552	306.558707286428	8.624e-005
1	6560	307.085394002484	9.512e-005
1	6568	307.113256929394	6.288e-005
1	6576	307.588582737675	0.0001012
1	6584	307.822638597943	6.568e-005
1	6592	308.442565829038	7.648e-005
1	6611	308.666247864161	9.48e-005
1	6619	309.337464418142	7.336e-005
1	6627	310.814457263619	7.408e-005
1	6657	312.247554262667	7.344e-005
1	6676	313.827163077186	9.032e-005
1	6684	313.857361308703	6.232e-005
1	6692	314.80003183853	8.168e-005
1	6722	315.144307740636	8.952e-005
1	6730	316.445890065791	8.576e-005
1	6760	317.052982722603	0.00010632
1	6768	318.888173961654	6.72e-005
1	6776	319.084588177492	6.424e-005
1	6795	319.628437417534	0.0001032
1	6803	319.638637711219	8.48e-005
1	6811	320.070807861827	6.36e-005
1	6819	320.099927155512	8.36e-005
1	6827	320.927394576724	8.68e-005
1	6835	322.127670045293	6.744e-005
1	6843	322.982083619448	9.392e-005
1	6873	324.997586638115	7.168e-005
1	6881	325.85426328944	6.528e-005
1	6900	326.46733300329	8.024e-005
1	6908	326.61315223649	6.44e-005
1	6927	327.384342361627	9.792e-005
1	6946	328.26899923322	8.536e-005
1	6954	328.346856284808	5.896e-005
1	6962	328.347596294122	9.832e-005
1	6981	329.364095467191	7.784e-005
1	7000	330.459519998053	8.904e-005
1	7030	331.323238572948	6.872e-005
1	7038	331.4967209237	6.856e-005
1	7057	332.05333401002	7.344e-005
1	7065	332.194877815935	7.696e-005
1	7073	333.086288496227	9.008e-005
1	7092	333.423635051437	8.264e-005
1	7100	333.651319292691	9.224e-005
1	7108	333.779231432289	7.312e-005
1	7116	333.780295994913	8.032e-005
1	7124	334.252619654048	5.952e-005
1	7132	334.55772577912	8.96e-005
1	7140	334.983727590662	6.2e-005
1	7148	335.780163828815	6.968e-005
1	7156	336.050582506936	6.664e-005
1	7164	336.253009460622	5.696e-005
1	7172	337.086074657966	8.952e-005
1	7180	337.133576956123	7.176e-005
1	7210	338.340649044229	9.512e-005
1	7218	338.8155935801	6.504e-005
1	7237	339.696898012415	8.744e-005
1	7245	339.821274981602	9.248e-005
1	7253	340.368215516202	8.544e-005
1	7272	341.161231455453	7.288e-005
1	7302	342.313116414917	8.528e-005
1	7321	343.053640108824	7.8e-005
1	7362	346.172808865825	7.448e-005
1	7392	346.893995262286	7.704e-005
1	7400	347.265801044483	8.032e-005
1	7408	347.589580370706	8.368e-005
1	7427	347.76022369778	8.536e-005
1	7435	348.54801992799	7.376e-005
1	7443	349.16818362146	7.936e-005
1	7451	349.747002515994	0.00010576
1	7459	349.788229012445	8.296e-005
1	7467	349.826065698815	7.92e-005
1	7475	351.342948066721	6.68e-005
1	7483	351.359140703039	9.144e-005
1	7491	352.200040894621	8.904e-005
1	7499	352.327157015308	6.832e-005
1	7507	352.457139327406	6.152e-005
1	7526	352.855351641385	8.904e-005
1	7545	353.622056023155	6.856e-005
1	7553	353.833454497341	8.44e-005
1	7572	354.262585750647	7.112e-005
1	7580	355.172832612062	6.144e-005
1	7599	356.388624182519	7.2e-005
1	7673	359.138411573089	8.12e-005
1	7681	359.879756249395	8.392e-005
1	7689	360.276933203919	5.072e-005
1	7697	360.396691186723	8.672e-005
1	7705	361.117833018957	9.504e-005
1	7713	361.509608706006	7.864e-005
1	7721	361.700582621057	7.56e-005
1	7729	361.764230016014	8.344e-005
1	7737	362.140383404318	7.688e-005
1	7745	362.151454343884	9.888e-005
1	7753	362.283636699246	6.776e-005
1	7761	363.122834804678	9.208e-005
1	7769	363.414248901538	8.256e-005
1	7777	364.464072262893	8.552e-005
1	7785	364.692404623623	5.224e-005
1	7804	364.869697495051	5.264e-005
1	7823	365.709689170058	8.8e-005
1	7831	365.85839387163	7.936e-005
1	7839	366.544911431037	6.088e-005
1	7847	367.14845059252	4.448e-005
1	7877	368.500168823625	9.368e-005
1	7918	369.763057106972	8.04e-005
1	7926	369.984698194376	6.92e-005
1	7934	370.085531402211	8.64e-005
1	7942	370.5730121295	8.032e-005
1	7950	372.571329464381	8.92e-005
1	7958	374.164851127805	6.624e-005
1	7977	375.527608495402	7.784e-005
1	7985	375.909692314643	8.176e-005
1	8004	376.831706655165	7.472e-005
1	8045	379.484570834689	0.0001112
1	8053	379.6098960887	8.304e-005
1	8072	379.707776049737	0.00011072
1	8080	379.794686190711	6.496e-005
1	8110	381.386002647412	7.248e-005
1	8118	382.510905851186	8.064e-005
1	8137	384.081204016789	8.032e-005
1	8145	384.862435847471	8.84e-005
1	8164	386.101703853633	8.904e-005
1	8172	386.194967753097	8.944e-005
1	8191	386.274140885618	7.168e-005
1	8210	387.80114381846	6.968e-005
1	8218	388.016741756207	9.576e-005
1	8226	388.04486424081	6.448e-005
1	8234	389.108059800045	9.776e-005
1	8242	389.142084772769	8.648e-005
1	8272	392.207896937718	8.952e-005
1	8280	392.862249098486	7.544e-005
1	8288	393.09998687002	6.664e-005
1	8307	394.84929417608	6.448e-005
1	8348	397.284092037032	0.00010032
1	8356	397.824780404767	9.096e-005
1	8364	398.322112386689	8.312e-005
1	8372	398.59639608159	7.904e-005
1	8380	398.766875650284	7.904e-005
1	8399	399.326643549743	8.112e-005
1	8407	399.396363007101	9.76e-005
1	8426	400.095280033716	0.00010024
1	8434	400.288951057914	7.712e-005
1	8453	401.733819671988	7.752e-005
1	8483	402.312966467259	7.76e-005
1	8513	403.582167840174	8.136e-005
1	8521	403.608632750987	7.568e-005
1	8529	404.010007117305	8.328e-005
1	8537	404.417247513701	8.104e-005
1	8545	404.445087887826	8.128e-005
1	8553	404.931681073611	9.944e-005
1	8561	405.38053163683	7.28e-005
1	8569	405.523075882111	6.784e-005
1	8577	405.718824783226	7.904e-005
1	8585	405.841349239126	8.488e-005
1	8593	405.938195924204	6.648e-005
1	8601	406.337361655518	8.344e-005
1	8631	407.693999134201	8.816e-005
1	8639	407.704600630099	9.208e-005
1	8647	408.599769389419	7.496e-005
1	8666	409.106964322065	7.888e-005
1	8674	409.111561656706	8.792e-005
1	8693	411.003156338953	8.528e-005
1	8701	411.348074309126	8.52e-005
1	8709	411.436193044899	0.000108
1	8717	411.574775422961	8.096e-005
1	8725	411.762346476096	0.00010248
1	8733	411.907907444178	8.776e-005
1	8785	415.610791328442	0.00010264
1	8804	416.334495265602	9.656e-005
1	8812	416.805634158613	7.912e-005
1	8831	417.275876081764	6.52e-005
1	8839	417.391555101249	7.384e-005
1	8847	418.236655125558	8.048e-005
1	8877	418.997999441828	8.024e-005
1	8885	419.136121692679	7.736e-005
1	8904	419.24726871399	8.12e-005
1	8912	419.314898799055	7.688e-005
1	8920	419.504618861181	7.352e-005
1	8928	420.452455060972	7.848e-005
1	8936	420.677235228576	7.616e-005
1	8944	421.512160887782	7.24e-005
1	8952	421.549043919254	8.472e-005
1	8960	421.838132921967	0.00011008
1	8968	422.136109320255	7.432e-005
1	8976	422.50487919814	9.288e-005
1	8984	422.59689654382	6.632e-005
1	9014	424.002463697369	9.68e-005
1	9033	425.889225057721	8.816e-005
1	9074	427.853889633763	7.456e-005
1	9082	427.94906689259	8.48e-005
1	9090	429.121121234427	7.056e-005
1	9098	429.176019724693	8.64e-005
1	9106	429.227770021328	9.8e-005
1	9125	429.53051582155	6.784e-005
1	9155	431.861662031137	7.736e-005
1	9163	431.945061274311	7.472e-005
1	9171	432.250924790162	8.808e-005
1	9179	432.389412963454	0.00011
1	9187	432.563554503435	6.552e-005
1	9206	434.425599575306	7.432e-005
1	9225	436.314853223478	6.112e-005
1	9244	437.369039284034	8.36e-005
1	9252	437.478731454423	7.272e-005
1	9260	439.339123033286	7.704e-005
1	9290	440.154480504899	6.488e-005
1	9298	440.330549572097	9.024e-005
1	9306	440.550779396168	7.736e-005
1	9369	442.220436009502	9.672e-005
1	9377	442.264334093212	8.664e-005
1	9385	442.568810655614	9.136e-005
1	9393	442.995787887322	8.2e-005
1	9412	444.057100594478	6.072e-005
1	9420	444.544275787155	8.008e-005
1	9439	445.524957856891	7.824e-005
1	9447	445.726922180578	8.04e-005
1	9455	445.851039182821	8.336e-005
1	9463	446.473508186562	7.856e-005
1	9482	447.021495861959	9.568e-005
1	9490	447.500484856372	8.136e-005
1	9498	447.636361149013	7.592e-005
1	9506	448.040833452061	9.688e-005
1	9514	448.045471284576	8.008e-005
1	9522	449.043533205962	7.56e-005
1	9530	449.185018439681	7.344e-005
1	9538	449.198128369479	7.568e-005
1	9546	449.523005719909	7.736e-005
1	9554	450.846972142986	8.04e-005
1	9595	453.228787297557	8.832e-005
1	9603	454.164916173976	6.696e-005
1	9611	454.655643241617	8.176e-005
1	9663	457.677203674602	9.272e-005
1	9671	457.993293618182	9.792e-005
1	9690	459.239670349989	9.16e-005
1	9698	459.464407688761	6.56e-005
1	9706	459.670805468209	9.808e-005
1	9714	459.877260012221	8.128e-005
1	9722	460.640751509983	8.536e-005
1	9741	461.206243783705	0.00011248
1	9749	461.405072403716	8.376e-005
1	9768	461.755448000395	7.536e-005
1	9776	461.792344809444	8e-005
1	9784	461.873083756307	7.272e-005
1	9792	462.496846033425	7.472e-005
1	9811	464.54326571238	6.792e-005
1	9841	465.82748778728	7.928e-005
1	9849	466.190550296162	8.576e-005
1	9857	466.256727183035	8.496e-005
1	9865	466.354589809784	9.552e-005
1	9873	466.677419097205	6.856e-005
1	9881	467.048674545343	8.336e-005
1	9911	468.570621717508	7.76e-005
1	9919	468.615469672854	8.984e-005
1	9938	469.560494653077	8.776e-005
1	9946	469.842797288525	7.24e-005
1	9954	469.949455706277	6.304e-005
1	9984	470.884696792792	7.68e-005
1	9992	471.267090181028	9.608e-005
1	10000	471.272093944382	8.144e-005
1	10019	472.89212029229	8.32e-005
1	10038	475.667789689896	7.216e-005
1	10046	475.844488895118	9.44e-005
1	10054	475.904577936698	7.264e-005
1	10062	477.265259063437	8.168e-005
1	10081	477.465783028267	8.424e-005
1	10100	477.7462959211	8.728e-005
1	10108	478.130097484562	7.2e-005
1	10116	478.695583088307	8.096e-005
1	10124	478.954284369785	8.232e-005
1	10132	479.855563971915	5.24e-005
1	10173	482.478268954444	8.328e-005
1	10181	482.766574245633	9.016e-005
1	10189	483.560911164332	8.336e-005
1	10230	484.791726019901	6.92e-005
1	10238	485.007830731188	9.352e-005
1	10246	485.072265595886	7.84e-005
1	10254	485.154720620152	7.248e-005
1	10273	485.986870483498	7.064e-005
1	10281	486.219461132341	8.416e-005
1	10300	487.206898454054	9.968e-005
1	10319	488.545468590016	6.912e-005
1	10338	489.54161501509	9.496e-005
1	10346	489.599529698017	6.368e-005
1	10354	489.614698404632	6.104e-005
1	10373	490.613416704643	0.00010064
1	10392	492.128831087208	8.28e-005
1	10422	493.207847549603	7.928e-005
1	10430	493.237013785543	9.92e-005
1	10438	493.264500517587	8.656e-005
1	10446	494.385796483041	8.24e-005
1	10465	494.762594897146	6.2e-005
1	10473	494.981770205294	9.28e-005
1	10481	495.867341041853	6.808e-005
1	10500	497.103295383742	8.128e-005
1	10508	497.384983490969	7.176e-005
1	10516	497.791046200728	8e-005
2	109	2.523630471295	2.523630471295
2	117	3.011105186963	0.487474715668
2	278	9.770028512924	6.758923325961
2	357	14.104685152717	4.334656639793
2	395	15.314112361233	1.209427208516
2	419	16.63314430121	1.319031939977
2	438	17.307466732845	0.674322431635
2	873	38.29645958277	20.988992849925
2	900	39.985743021776	1.689283439006
2	932	41.64072174149	1.654978719714
2	978	43.40777166384	1.76704992235
2	1207	54.474336901166	11.066565237326
2	1367	60.319408082038	5.845071180872
2	1451	65.06870051767	4.749292435632
2	1467	65.760569790443	0.691869272773
2	1499	67.664721416595	1.904151626152
2	1729	76.204511818036	8.539790401441
2	1756	79.080688939051	2.876177121015
2	1918	83.834932860567	4.754243921516
2	1934	84.392162728098	0.557229867531
2	1942	84.626674635694	0.234511907596
2	1961	86.636668331743	2.009993696049
2	2072	92.119444259631	5.482775927888
2	2080	92.594491846018	0.475047586387
2	2286	104.07302162301	11.478529776992
2	2329	105.410712883198	1.337691260188
2	2388	109.8014043423	4.390691459102
2	2396	110.558330964212	0.756926621912
2	2586	121.025240747619	10.466909783407
2	2602	121.396223891504	0.370983143885
2	2610	121.681887549821	0.285663658317
2	2618	121.818957602266	0.137070052445
2	2634	122.062095072876	0.24313747061
2	2661	122.187102396442	0.125007323566
2	2677	125.940993750809	3.753891354367
2	2767	128.638533891628	2.697540140819
2	2783	129.489423637266	0.850889745638
2	2791	129.879369921473	0.389946284207
2	2891	133.543148136266	3.663778214793
2	2899	133.806403638389	0.263255502123
2	2907	133.877275915925	0.070872277536
2	2931	135.265829437481	1.388553521556
2	2955	136.259265706727	0.993436269246
2	2963	136.53754595064	0.278280243913
2	3231	148.434285978992	11.896740028352
2	3309	152.46342849599	4.029142516998
2	3501	163.183923616707	10.720495120717
2	3642	170.345150929555	7.161227312848
2	3650	170.724255560695	0.37910463114
2	3680	172.315780843847	1.591525283152
2	3731	173.686175258605	1.370394414758
2	3763	174.75780153464	1.071626276035
2	3806	175.869444997165	1.111643462525
2	3833	176.886552332842	1.017107335677
2	3879	178.109180259357	1.222627926515
2	3919	179.172761243563	1.063580984206
2	3935	179.731294276608	0.558533033045
2	4097	186.023843276347	6.292548999739
2	4194	190.291217803459	4.267374527112
2	4385	197.082556939097	6.791339135638
2	4412	197.602456992201	0.519900053104
2	4428	198.205626092059	0.603169099858
2	4520	200.974498193422	2.768872101363
2	4547	202.451405057729	1.476906864307
2	4644	210.023924844566	7.572519786837
2	4652	210.690437443203	0.666512598637
2	4679	211.336037868118	0.645600424915
2	4720	213.867066990927	2.531029122809
2	4771	215.947685036206	2.080618045279
2	4874	221.84698304935	5.899298013144
2	4928	225.061400383743	3.214417334393
2	5047	230.636892022255	5.575491638512
2	5066	232.234198030778	1.597306008523
2	5074	232.613171476418	0.37897344564
2	5098	233.450710425203	0.837538948785
2	5106	234.06695529219	0.616244866987
2	5114	234.690950169142	0.623994876952
2	5171	237.309302726109	2.618352556967
2	5274	242.655630207171	5.346327481062
2	5290	242.776262834066	0.120632626895
2	5344	246.705974141243	3.929711307177
2	5428	251.106071526314	4.400097385071
2	5444	251.300368812088	0.194297285774
2	5452	251.474055171585	0.173686359497
2	5460	251.723715353773	0.249660182188
2	5755	269.716946217983	17.99323086421
2	5771	269.961278699541	0.244332481558
2	5806	271.30661273104	1.345334031499
2	5852	273.686504571298	2.379891840258
2	5941	277.943269851782	4.256765280484
2	5960	278.359800810096	0.416530958314
2	5995	280.116887040664	1.757086230568
2	6011	280.877886351042	0.760999310378
2	6127	285.057494199099	4.179607848057
2	6265	293.197793469115	8.140299270016
2	6319	295.057453913058	1.859660443943
2	6357	296.696118858957	1.638664945899
2	6365	297.231882244996	0.535763386039
2	6411	300.00687572582	2.774993480824
2	6484	303.351172449553	3.344296723733
2	6503	304.223812136526	0.872639686973
2	6511	304.4409525652	0.217140428674
2	6592	308.442565829038	4.001613263838
2	6684	313.857361308703	5.414795479665
2	6819	320.099927155512	6.242565846809
2	6873	324.997586638115	4.897659482603
2	6900	326.46733300329	1.469746365175
2	6954	328.346856284808	1.879523281518
2	7030	331.323238572948	2.97638228814
2	7148	335.780163828815	4.456925255867
2	7156	336.050582506936	0.270418678121
2	7180	337.133576956123	1.082994449187
2	7237	339.696898012415	2.563321056292
2	7245	339.821274981602	0.124376969187
2	7392	346.893995262286	7.072720280684
2	7400	347.265801044483	0.371805782197
2	7451	349.747002515994	2.481201471511
2	7467	349.826065698815	0.079063182821
2	7483	351.359140703039	1.533075004224
2	7499	352.327157015308	0.968016312269
2	7599	356.388624182519	4.061467167211
2	7705	361.117833018957	4.729208836438
2	7745	362.151454343884	1.033621324927
2	7769	363.414248901538	1.262794557654
2	7804	364.869697495051	1.455448593513
2	7847	367.14845059252	2.278753097469
2	7934	370.085531402211	2.937080809691
2	7950	372.571329464381	2.48579806217
2	7958	374.164851127805	1.593521663424
2	8045	379.484570834689	5.319719706884
2	8053	379.6098960887	0.125325254011
2	8072	379.707776049737	0.097879961037
2	8080	379.794686190711	0.086910140974
2	8110	381.386002647412	1.591316456701
2	8137	384.081204016789	2.695201369377
2	8210	387.80114381846	3.719939801671
2	8218	388.016741756207	0.215597937747
2	8288	393.09998687002	5.083245113813
2	8453	401.733819671988	8.633832801968
2	8483	402.312966467259	0.579146795271
2	8521	403.608632750987	1.295666283728
2	8537	404.417247513701	0.808614762714
2	8553	404.931681073611	0.51443355991
2	8569	405.523075882111	0.5913948085
2	8577	405.718824783226	0.195748901115
2	8585	405.841349239126	0.1225244559
2	8593	405.938195924204	0.096846685078
2	8674	409.111561656706	3.173365732502
2	8693	411.003156338953	1.891594682247
2	8717	411.574775422961	0.571619084008
2	8804	416.334495265602	4.759719842641
2	8885	419.136121692679	2.801626427077
2	8976	422.50487919814	3.368757505461
2	9090	429.121121234427	6.616242036287
2	9125	429.53051582155	0.409394587123
2	9252	437.478731454423	7.948215632873
2	9369	442.220436009502	4.741704555079
2	9377	442.264334093212	0.04389808371
2	9385	442.568810655614	0.304476562402
2	9482	447.021495861959	4.452685206345
2	9554	450.846972142986	3.825476281027
2	9714	459.877260012221	9.030287869235
2	9722	460.640751509983	0.763491497762
2	9749	461.405072403716	0.764320893733
2	9768	461.755448000395	0.350375596679
2	9873	466.677419097205	4.92197109681
2	9992	471.267090181028	4.589671083823
2	10038	475.667789689896	4.400699508868
2	10054	475.904577936698	0.236788246802
2	10062	477.265259063437	1.360681126739
2	10230	484.791726019901	7.526466956464
2	10281	486.219461132341	1.42773511244
2	10446	494.385796483041	8.1663353507
2	10465	494.762594897146	0.376798414105
2	10481	495.867341041853	1.104746144707
2	10508	497.384983490969	1.517642449116
2	10516	497.791046200728	0.406062709759
3	136	3.409961656587	3.409961656587
3	163	4.46563587432	1.055674217733
3	219	8.171554519998	3.705918645678
3	243	8.417726899619	0.246172379621
3	411	16.598734898035	8.181007998416
3	465	18.18898247404	1.590247576005
3	484	18.548551583165	0.359569109125
3	492	19.468346157556	0.919794574391
3	530	22.002971199681	2.534625042125
3	546	22.459598742967	0.456627543286
3	562	23.167305758485	0.707707015518
3	681	29.715443748146	6.548137989661
3	719	32.411740070585	2.696296322439
3	765	33.650142980436	1.238402909851
3	773	34.009075850962	0.358932870526
3	908	40.631382969285	6.622307118323
3	916	40.84396518376	0.212582214475
3	940	42.322792019391	1.478826835631
3	986	43.448835520147	1.126043500756
3	994	44.859027821314	1.410192301167
3	1100	49.262177309065	4.403149487751
3	1277	57.303118824188	8.040941515123
3	1416	62.98198126582	5.678862441632
3	1443	64.9824687549	2.00048748908
3	1475	65.825303409343	0.842834654443
3	1491	66.878941088952	1.053637679609
3	1548	69.337424543733	2.458483454781
3	1556	69.351436106293	0.01401156256
3	1572	70.380884464285	1.029448357992
3	1599	71.174875517906	0.793991053621
3	1659	73.65023882145	2.475363303544
3	1786	79.556359416566	5.906120595116
3	1845	82.16221829818	2.605858881614
3	1853	83.129577934572	0.967359636392
3	1969	86.856675880876	3.727097946304
3	1988	87.631475989059	0.774800108183
3	1996	88.047947600859	0.4164716118
3	2045	89.700391530494	1.652443929635
3	2053	89.795103694288	0.094712163794
3	2099	93.177280533457	3.382176839169
3	2107	93.250408279973	0.073127746516
3	2142	97.310431325643	4.06002304567
3	2218	100.457735005855	3.147303680212
3	2267	102.787437083115	2.32970207726
3	2313	105.220022319935	2.43258523682
3	2337	105.627624733774	0.407602413839
3	2369	107.901513288212	2.273888554438
3	2456	112.464394631886	4.562881343674
3	2475	112.882069299309	0.417674667423
3	2483	113.468866351315	0.586797052006
3	2535	117.104510513197	3.635644161882
3	2551	118.22703517599	1.122524662793
3	2848	132.148622196643	13.921587020653
3	2875	133.034683238277	0.886061041634
3	2947	135.609411657158	2.574728418881
3	3082	142.223834572015	6.614422914857
3	3128	145.245233609468	3.021399037453
3	3258	149.134461725261	3.889228115793
3	3285	150.538009481379	1.403547756118
3	3301	151.936964905691	1.398955424312
3	3374	155.285105766902	3.348140861211
3	3382	156.513367264923	1.228261498021
3	3493	163.080223456996	6.566856192073
3	3509	163.244535399504	0.164311942508
3	3552	166.201893186174	2.95735778667
3	3568	167.209307851803	1.007414665629
3	3696	173.12389385367	5.914586001867
3	3715	173.395655875595	0.271762021925
3	3739	173.904955408324	0.509299532729
3	3771	174.910174220087	1.005218811763
3	3841	177.097344686075	2.187170465988
3	3887	178.839845711323	1.742501025248
3	3895	178.845356589671	0.005510878348
3	3903	178.987116951638	0.141760361967
3	3927	179.276452030043	0.289335078405
3	3981	181.753908514402	2.477456484359
3	4011	183.735026449702	1.9811179353
3	4057	184.679498900968	0.944472451266
3	4065	184.726002467187	0.046503566219
3	4073	184.748420333478	0.022417866291
3	4081	185.098203295241	0.349782961763
3	4105	186.865002712733	1.766799417492
3	4132	188.196900656741	1.331897944008
3	4151	188.788507112308	0.591606455567
3	4167	189.478436730685	0.689929618377
3	4186	190.219339880765	0.74090315008
3	4226	191.458904088448	1.239564207683
3	4234	192.044014129705	0.585110041257
3	4242	192.502465300541	0.458451170836
3	4250	192.755022004615	0.252556704074
3	4258	192.758838151466	0.003816146851
3	4299	194.391042196835	1.632204045369
3	4318	195.390886236108	0.999844039273
3	4326	195.560341622393	0.169455386285
3	4369	196.733742657288	1.173401034895
3	4404	197.16732147291	0.433578815622
3	4455	198.859687634788	1.692366161878
3	4482	199.259282437023	0.399594802235
3	4579	205.528156732632	6.268874295609
3	4595	206.456702615642	0.92854588301
3	4728	214.721794426377	8.265091810735
3	4736	214.801830122327	0.08003569595
3	4744	215.314458900974	0.512628778647
3	4963	226.477666235689	11.163207334715
3	5001	228.096765709175	1.619099473486
3	5020	229.061628010868	0.964862301693
3	5155	236.381624487603	7.319996476735
3	5225	240.518847255768	4.137222768165
3	5298	243.284355166256	2.765507910488
3	5317	244.63443501785	1.350079851594
3	5412	250.448182939385	5.813747921535
3	5420	250.869540754739	0.421357815354
3	5436	251.264583705152	0.395042950413
3	5495	253.698469226032	2.43388552088
3	5514	254.630187165304	0.931717939272
3	5560	258.897647027434	4.26745986213
3	5595	260.801686482432	1.904039454998
3	5630	263.772438145011	2.970751662579
3	5668	265.858780140532	2.086341995521
3	5763	269.869743844768	4.010963704236
3	5787	270.778069505999	0.908325661231
3	5814	271.694028590914	0.915959084915
3	5860	274.629097830128	2.935069239214
3	5917	276.263252973474	1.634155143346
3	6003	280.270952277276	4.007699303802
3	6070	282.838101613508	2.567149336232
3	6162	287.510858208676	4.672756595168
3	6373	297.908240589439	10.397382380763
3	6419	300.787644177032	2.879403587593
3	6438	301.770523704755	0.982879527723
3	6584	307.822638597943	6.052114893188
3	6619	309.337464418142	1.514825820199
3	6657	312.247554262667	2.910089844525
3	6722	315.144307740636	2.896753477969
3	6811	320.070807861827	4.926500121191
3	6881	325.85426328944	5.783455427613
3	6908	326.61315223649	0.75888894705
3	6927	327.384342361627	0.771190125137
3	6946	328.26899923322	0.884656871593
3	6962	328.347596294122	0.078597060902
3	7057	332.05333401002	3.705737715898
3	7073	333.086288496227	1.032954486207
3	7092	333.423635051437	0.33734655521
3	7108	333.779231432289	0.355596380852
3	7124	334.252619654048	0.473388221759
3	7172	337.086074657966	2.833455003918
3	7218	338.8155935801	1.729518922134
3	7272	341.161231455453	2.345637875353
3	7302	342.313116414917	1.151884959464
3	7321	343.053640108824	0.740523693907
3	7443	349.16818362146	6.114543512636
3	7475	351.342948066721	2.174764445261
3	7545	353.622056023155	2.279107956434
3	7673	359.138411573089	5.516355549934
3	7681	359.879756249395	0.741344676306
3	7689	360.276933203919	0.397176954524
3	7697	360.396691186723	0.119757982804
3	7721	361.700582621057	1.303891434334
3	7737	362.140383404318	0.439800783261
3	7823	365.709689170058	3.56930576574
3	7877	368.500168823625	2.790479653567
3	7985	375.909692314643	7.409523491018
3	8004	376.831706655165	0.922014340522
3	8172	386.194967753097	9.363261097932
3	8191	386.274140885618	0.079173132521
3	8234	389.108059800045	2.833918914427
3	8272	392.207896937718	3.099837137673
3	8372	398.59639608159	6.388499143872
3	8399	399.326643549743	0.730247468153
3	8407	399.396363007101	0.069719457358
3	8513	403.582167840174	4.185804833073
3	8601	406.337361655518	2.755193815344
3	8639	407.704600630099	1.367238974581
3	8666	409.106964322065	1.402363691966
3	8812	416.805634158613	7.698669836548
3	8912	419.314898799055	2.509264640442
3	8920	419.504618861181	0.189720062126
3	8944	421.512160887782	2.007542026601
3	8960	421.838132921967	0.325972034185
3	9074	427.853889633763	6.015756711796
3	9155	431.861662031137	4.007772397374
3	9163	431.945061274311	0.083399243174
3	9171	432.250924790162	0.305863515851
3	9179	432.389412963454	0.138488173292
3	9187	432.563554503435	0.174141539981
3	9206	434.425599575306	1.862045071871
3	9225	436.314853223478	1.889253648172
3	9298	440.330549572097	4.015696348619
3	9393	442.995787887322	2.665238315225
3	9412	444.057100594478	1.061312707156
3	9447	445.726922180578	1.6698215861
3	9455	445.851039182821	0.124117002243
3	9463	446.473508186562	0.622469003741
3	9514	448.045471284576	1.571963098014
3	9530	449.185018439681	1.139547155105
3	9595	453.228787297557	4.043768857876
3	9603	454.164916173976	0.936128876419
3	9690	459.239670349989	5.074754176013
3	9741	461.206243783705	1.966573433716
3	9776	461.792344809444	0.586101025739
3	9784	461.873083756307	0.080738946863
3	9841	465.82748778728	3.954404030973
3	9857	466.256727183035	0.429239395755
3	9911	468.570621717508	2.313894534473
3	9919	468.615469672854	0.044847955346
3	9938	469.560494653077	0.945024980223
3	9954	469.949455706277	0.3889610532
3	10000	471.272093944382	1.322638238105
3	10100	477.7462959211	6.474201976718
3	10108	478.130097484562	0.383801563462
3	10116	478.695583088307	0.565485603745
3	10124	478.954284369785	0.258701281478
3	10181	482.766574245633	3.812289875848
3	10189	483.560911164332	0.794336918699
3	10246	485.072265595886	1.511354431554
3	10346	489.599529698017	4.527264102131
3	10422	493.207847549603	3.608317851586
3	10430	493.237013785543	0.02916623594
3	10473	494.981770205294	1.744756419751
4	155	4.426914885675	4.426914885675
4	171	4.631299987036	0.204385101361
4	187	6.422612675155	1.791312688119
4	235	8.410810817073	1.988198141918
4	251	8.962786130822	0.551975313749
4	270	9.540480773433	0.577694642611
4	297	11.093481829277	1.553001055844
4	387	15.105806076321	4.012324247044
4	522	21.917240864501	6.81143478818
4	554	22.697168605806	0.779927741305
4	570	23.208607438275	0.511438832469
4	589	23.387914285726	0.179306847451
4	627	27.419093698996	4.03117941327
4	665	28.467042690606	1.04794899161
4	689	30.11074098301	1.643698292404
4	749	33.051201727975	2.940460744965
4	757	33.483975778769	0.432774050794
4	789	35.182928046053	1.698952267284
4	808	36.111238149628	0.928310103575
4	838	36.428393802295	0.317155652667
4	865	37.657661077827	1.229267275532
4	924	41.394450909643	3.736789831816
4	1021	45.181767011262	3.787316101619
4	1116	49.838790554706	4.657023543444
4	1124	50.1784685018	0.339677947094
4	1164	52.714799633488	2.536331131688
4	1245	56.318555804812	3.603756171324
4	1253	56.491308536039	0.172752731227
4	1269	57.016784064692	0.525475528653
4	1408	62.720166168328	5.703382103636
4	1483	66.867810335212	4.147644166884
4	1564	70.253237566989	3.385427231777
4	1694	75.140716179906	4.887478612917
4	1721	75.990967004039	0.850250824133
4	1748	79.049725642917	3.058758638878
4	1794	79.854742599984	0.805016957067
4	1802	80.746417075375	0.891674475391
4	1872	83.481024826562	2.734607751187
4	1926	83.892147926844	0.411123100282
4	2134	94.241380585475	10.349232658631
4	2169	98.326578319426	4.085197733951
4	2188	99.145064221033	0.818485901607
4	2237	100.591294435384	1.446230214351
4	2448	112.255978409086	11.664683973702
4	2543	117.828254732456	5.57227632337
4	2559	119.498472193471	1.670217461015
4	2567	120.078586350748	0.580114157277
4	2594	121.358142857144	1.279556506396
4	2653	122.129187316082	0.771044458938
4	2685	126.826233283099	4.697045967017
4	2726	127.334496108471	0.508262825372
4	2810	130.709636878038	3.375140769567
4	2818	130.838886505888	0.12924962785
4	2856	132.679391307632	1.840504801744
4	2883	133.295082071051	0.615690763419
4	2915	134.476429854523	1.181347783472
4	2923	134.682868918025	0.206439063502
4	3047	139.488749438096	4.805880520071
4	3136	145.446625859495	5.957876421399
4	3293	151.404696938649	5.958071079154
4	3325	153.267784745811	1.863087807162
4	3398	156.804411919317	3.536627173506
4	3458	160.834779690449	4.030367771132
4	3485	162.130572803371	1.295793112922
4	3517	163.639224745539	1.508651942168
4	3525	164.862561672792	1.223336927253
4	3533	165.662834215589	0.800272542797
4	3560	166.476875909778	0.814041694189
4	3688	172.50398329939	6.027107389612
4	3755	174.074770607168	1.570787307778
4	3779	174.94730266184	0.872532054672
4	3798	175.056459308276	0.109156646436
4	3814	175.876455884999	0.819996576723
4	3871	178.051518523061	2.175062638062
4	3911	179.030206083051	0.97868755999
4	4030	184.244828291896	5.214622208845
4	4089	185.817125141954	1.572296850058
4	4210	190.401704653813	4.584579511859
4	4345	195.890597701918	5.488893048105
4	4353	196.201971983885	0.311374281967
4	4361	196.253567940932	0.051595957047
4	4377	196.97831909928	0.724751158348
4	4447	198.539754358091	1.561435258811
4	4474	199.242240644822	0.702486286731
4	4501	199.887524730821	0.645284085999
4	4528	201.28057429138	1.393049560559
4	4563	203.377601720173	2.097027428793
4	4571	203.784219389509	0.406617669336
4	4603	206.932532635087	3.148313245578
4	4763	215.829066552988	8.896533917901
4	4812	218.340110365518	2.51104381253
4	4839	219.422700517585	1.082590152067
4	4882	221.937510125672	2.514809608087
4	4944	226.023792873487	4.086282747815
4	4982	227.072766795648	1.048973922161
4	5039	229.616901144188	2.54413434854
4	5082	232.728778459058	3.11187731487
4	5090	233.074182435594	0.345403976536
4	5209	239.237328198994	6.1631457634
4	5244	241.459032034963	2.221703835969
4	5363	246.936999889209	5.477967854246
4	5541	255.961722157268	9.024722268059
4	5568	259.166326494766	3.204604337498
4	5603	262.184916349378	3.018589854612
4	5622	263.388555182521	1.203638833143
4	5717	268.455318451255	5.066763268734
4	5736	268.9240863185	0.468767867245
4	5844	273.063520333732	4.139434015232
4	5968	278.379966428517	5.316446094785
4	6027	281.786614727854	3.406648299337
4	6043	282.025647147033	0.239032419179
4	6100	284.720623790896	2.694976643863
4	6146	287.311910685632	2.591286894736
4	6170	288.074768011994	0.762857326362
4	6208	290.557614990277	2.482846978283
4	6281	294.424703489439	3.867088499162
4	6300	294.730961188977	0.306257699538
4	6457	301.920312888529	7.189351699552
4	6568	307.113256929394	5.192944040865
4	6760	317.052982722603	9.939725793209
4	6835	322.127670045293	5.07468732269
4	6843	322.982083619448	0.854413574155
4	6981	329.364095467191	6.382011847743
4	7000	330.459519998053	1.095424530862
4	7038	331.4967209237	1.037200925647
4	7065	332.194877815935	0.698156892235
4	7116	333.780295994913	1.585418178978
4	7132	334.55772577912	0.777429784207
4	7210	338.340649044229	3.782923265109
4	7253	340.368215516202	2.027566471973
4	7427	347.76022369778	7.392008181578
4	7435	348.54801992799	0.78779623021
4	7491	352.200040894621	3.652020966631
4	7526	352.855351641385	0.655310746764
4	7753	362.283636699246	9.428285057861
4	7777	364.464072262893	2.180435563647
4	7831	365.85839387163	1.394321608737
4	7839	366.544911431037	0.686517559407
4	7918	369.763057106972	3.218145675935
4	7926	369.984698194376	0.221641087404
4	7977	375.527608495402	5.542910301026
4	8118	382.510905851186	6.983297355784
4	8145	384.862435847471	2.351529996285
4	8164	386.101703853633	1.239268006162
4	8307	394.84929417608	8.747590322447
4	8348	397.284092037032	2.434797860952
4	8529	404.010007117305	6.725915080273
4	8545	404.445087887826	0.435080770521
4	8561	405.38053163683	0.935443749004
4	8631	407.693999134201	2.313467497371
4	8647	408.599769389419	0.905770255218
4	8877	418.997999441828	10.398230052409
4	8928	420.452455060972	1.454455619144
4	8936	420.677235228576	0.224780167604
4	8968	422.136109320255	1.458874091679
4	9014	424.002463697369	1.866354377114
4	9033	425.889225057721	1.886761360352
4	9306	440.550779396168	14.661554338447
4	9498	447.636361149013	7.085581752845
4	9506	448.040833452061	0.404472303048
4	9522	449.043533205962	1.002699753901
4	9546	449.523005719909	0.479472513947
4	9663	457.677203674602	8.154197954693
4	9706	459.670805468209	1.993601793607
4	9792	462.496846033425	2.826040565216
4	9811	464.54326571238	2.046419678955
4	9881	467.048674545343	2.505408832963
4	9984	470.884696792792	3.836022247449
4	10046	475.844488895118	4.959792102326
4	10081	477.465783028267	1.621294133149
4	10132	479.855563971915	2.389780943648
4	10173	482.478268954444	2.622704982529
4	10238	485.007830731188	2.529561776744
4	10254	485.154720620152	0.146889888964
4	10273	485.986870483498	0.832149863346
4	10300	487.206898454054	1.220027970556
4	10392	492.128831087208	4.921932633154
4	10438	493.264500517587	1.135669430379
4	10500	497.103295383742	3.838794866155

