version 2
run General-8-20220514-10:34:06-13416
attr configname General
attr datetime 20220514-10:34:06
attr experiment General
attr inifile omnetpp.ini
attr iterationvars $0=0.9
attr iterationvarsf 0.9-
attr measurement $0=0.9
attr network Lab2
attr processid 13416
attr repetition 0
attr replication #0
attr resultdir results
attr runnumber 8
attr seedset 8
param **.sim_time 500s
param **.next_event_par 1.0/(0.9)
param **.pck_len_mean 1000
param **.pck_len_stddev 150
param **.pck_len_min 26
param **.pck_len_max 1480
param **.num_of_hosts 4
param **.host1.ipAddr.IP_addr 0
param **.host2.ipAddr.IP_addr 1
param **.host3.ipAddr.IP_addr 2
param **.host4.ipAddr.IP_addr 3
param **.arp_ttl 10s
param **.host1.eth.MAC_addr 0
param **.host2.eth.MAC_addr 1
param **.host3.eth.MAC_addr 2
param **.host4.eth.MAC_addr 3
param **.aging_time 1s

vector 0 Lab2.host2.eth interval:vector ETV
attr interpolationmode none
attr source interval
attr title "interval, vector"
vector 1 Lab2 delay:vector ETV
attr interpolationmode none
attr source delay
attr title "delay, vector"
vector 2 Lab2.host3.eth interval:vector ETV
attr interpolationmode none
attr source interval
attr title "interval, vector"
vector 3 Lab2.host4.eth interval:vector ETV
attr interpolationmode none
attr source interval
attr title "interval, vector"
vector 4 Lab2.host1.eth interval:vector ETV
attr interpolationmode none
attr source interval
attr title "interval, vector"
0	46	0.294464144271	0.294464144271
0	100	3.194123311124	2.899659166853
0	127	3.843546345969	0.649423034845
0	162	5.087487720044	1.243941374075
0	170	5.221788915813	0.134301195769
0	210	6.351475726673	1.12968681086
0	272	8.146439081459	1.794963354786
0	288	8.497902026373	0.351462944914
0	488	15.183192997348	6.685290970975
0	550	18.271779657279	3.088586659931
0	566	18.400771957133	0.128992299854
0	582	18.866471447812	0.465699490679
0	590	19.024545118155	0.158073670343
0	649	20.645408824952	1.620863706797
0	782	24.368999967909	3.723591142957
0	887	28.111375304765	3.742375336856
0	903	28.522265803238	0.410890498473
0	946	30.282081359973	1.759815556735
0	962	30.750281923496	0.468200563523
0	978	31.75961379096	1.009331867464
0	986	32.04787540867	0.28826161771
0	1035	32.822866309206	0.774990900536
0	1078	34.142878215801	1.320011906595
0	1086	34.433049949889	0.290171734088
0	1132	36.377661043208	1.944611093319
0	1162	37.066765238553	0.689104195345
0	1256	38.938723244273	1.87195800572
0	1353	43.304067774859	4.365344530586
0	1501	47.114838279642	3.810770504783
0	1528	47.953315605605	0.838477325963
0	1544	48.530073641012	0.576758035407
0	1587	49.547562886529	1.017489245517
0	1630	50.383946539327	0.836383652798
0	1657	50.856880788073	0.472934248746
0	1665	50.92652176437	0.069640976297
0	1708	52.434049120317	1.507527355947
0	1724	53.06731351314	0.633264392823
0	1732	53.469388417571	0.402074904431
0	1748	54.41266900621	0.943280588639
0	1756	54.504941874324	0.092272868114
0	1851	58.241967135167	3.737025260843
0	1886	59.004890109556	0.762922974389
0	2002	62.995103257996	3.99021314844
0	2026	63.431448798266	0.43634554027
0	2061	65.298055584466	1.8666067862
0	2136	68.751160945436	3.45310536097
0	2160	69.254875190354	0.503714244918
0	2168	69.947643083426	0.692767893072
0	2198	70.076287226393	0.128644142967
0	2320	74.664878627142	4.588591400749
0	2336	75.232324675437	0.567446048295
0	2352	75.396730547606	0.164405872169
0	2441	79.194315782359	3.797585234753
0	2473	81.560154543848	2.365838761489
0	2481	81.701561402717	0.141406858869
0	2497	82.010113109322	0.308551706605
0	2532	83.223472557699	1.213359448377
0	2570	84.943214334635	1.719741776936
0	2656	87.261752312859	2.318537978224
0	2845	94.251237248596	6.989484935737
0	2888	95.964344741602	1.713107493006
0	2991	98.669845269634	2.705500528032
0	3066	101.988030320709	3.318185051075
0	3093	102.317543109823	0.329512789114
0	3109	103.274251978441	0.956708868618
0	3160	104.530440702709	1.256188724268
0	3168	104.596066808845	0.065626106136
0	3227	106.226727226248	1.630660417403
0	3265	107.076570930579	0.849843704331
0	3413	111.153875285563	4.077304354984
0	3421	111.317987483546	0.164112197983
0	3445	112.435447110409	1.117459626863
0	3504	113.357838638029	0.92239152762
0	3512	113.515094923913	0.157256285884
0	3536	113.873423246853	0.35832832294
0	3560	114.202765612539	0.329342365686
0	3655	115.350892808996	1.148127196457
0	3757	120.691831696635	5.340938887639
0	3784	121.600070858825	0.90823916219
0	3862	123.789761657594	2.189690798769
0	3878	124.05154299839	0.261781340796
0	4102	131.699849396854	7.648306398464
0	4129	132.733390179818	1.033540782964
0	4172	133.559861154846	0.826470975028
0	4180	133.811678835108	0.251817680262
0	4234	134.84175835504	1.030079519932
0	4250	135.934262781524	1.092504426484
0	4309	137.27373255101	1.339469769486
0	4317	137.337640763655	0.063908212645
0	4336	138.022695037562	0.685054273907
0	4344	138.023593346221	0.000898308659
0	4376	139.248083346898	1.224490000677
0	4446	140.156717986081	0.908634639183
0	4489	141.245418591171	1.08870060509
0	4516	141.957700259355	0.712281668184
0	4559	143.459957387017	1.502257127662
0	4613	145.420896424255	1.960939037238
0	4675	147.605614562338	2.184718138083
0	4799	151.853396412892	4.247781850554
0	4815	152.137351602815	0.283955189923
0	4831	152.277331018933	0.139979416118
0	4885	153.837981218397	1.560650199464
0	4893	154.478697784046	0.640716565649
0	4909	155.099479277833	0.620781493787
0	4933	155.323087193741	0.223607915908
0	4976	156.178727866527	0.855640672786
0	5014	157.924874409957	1.74614654343
0	5081	161.212838613631	3.287964203674
0	5089	161.321297437656	0.108458824025
0	5097	161.633593309771	0.312295872115
0	5113	161.823277613413	0.189684303642
0	5200	165.03978102432	3.216503410907
0	5316	168.582042578782	3.542261554462
0	5351	169.884938517103	1.302895938321
0	5383	171.022912023783	1.13797350668
0	5466	174.31300311155	3.290091087767
0	5539	177.154694825903	2.841691714353
0	5650	178.808558004294	1.653863178391
0	5787	181.870698382419	3.062140378125
0	5811	181.953663919619	0.0829655372
0	5859	183.542983897694	1.589319978075
0	5883	184.095964152976	0.552980255282
0	5891	184.22471273154	0.128748578564
0	5942	184.626877061885	0.402164330345
0	5950	185.043426282053	0.416549220168
0	5958	185.266065841279	0.222639559226
0	5974	185.878202064387	0.612136223108
0	5982	186.040328445315	0.162126380928
0	5998	186.625412135445	0.58508369013
0	6025	187.325690113255	0.70027797781
0	6033	187.539854858899	0.214164745644
0	6079	188.969184279519	1.42932942062
0	6111	189.178340747957	0.209156468438
0	6402	197.641858747033	8.463517999076
0	6410	197.655842890666	0.013984143633
0	6426	197.839400937981	0.183558047315
0	6485	199.679165269279	1.839764331298
0	6542	201.273604542407	1.594439273128
0	6588	202.59337882673	1.319774284323
0	6604	202.679304958761	0.085926132031
0	6612	202.721209529161	0.0419045704
0	6811	210.915111443301	8.19390191414
0	6827	211.956051403747	1.040939960446
0	6900	215.10440427498	3.148352871233
0	6946	215.950130699766	0.845726424786
0	6954	216.496478420284	0.546347720518
0	6992	218.100191342912	1.603712922628
0	7027	218.551249434492	0.45105809158
0	7043	218.895750031173	0.344500596681
0	7097	219.982266726794	1.086516695621
0	7105	220.25845888104	0.276192154246
0	7121	220.680291811719	0.421832930679
0	7148	221.778783005137	1.098491193418
0	7188	223.620237749694	1.841454744557
0	7212	224.286554781413	0.666317031719
0	7228	224.835379779258	0.548824997845
0	7463	232.051239270177	7.215859490919
0	7506	234.111527609226	2.060288339049
0	7514	234.601068757152	0.489541147926
0	7522	234.836746748278	0.235677991126
0	7538	235.272055281805	0.435308533527
0	7546	235.357013259691	0.084957977886
0	7565	235.907536024671	0.55052276498
0	7597	237.478062774007	1.570526749336
0	7605	237.548929692353	0.070866918346
0	7629	238.258300309365	0.709370617012
0	7691	240.092936772016	1.834636462651
0	7824	244.597319029855	4.504382257839
0	7883	245.724036735693	1.126717705838
0	7907	246.796979104391	1.072942368698
0	8085	251.81983807079	5.022858966399
0	8101	252.488648016027	0.668809945237
0	8109	252.676296727142	0.187648711115
0	8141	252.936590815195	0.260294088053
0	8181	253.897030766726	0.960439951531
0	8224	255.162230946574	1.265200179848
0	8289	256.840396257631	1.678165311057
0	8348	257.300923067799	0.460526810168
0	8364	257.859889021622	0.558965953823
0	8372	258.646830988724	0.786941967102
0	8444	260.483481797881	1.836650809157
0	8520	262.030962626088	1.547480828207
0	8563	262.961208410722	0.930245784634
0	8571	263.061215344985	0.100006934263
0	8579	263.540114551523	0.478899206538
0	8598	264.437784983739	0.897670432216
0	8630	265.473458166793	1.035673183054
0	8692	266.941040620032	1.467582453239
0	8708	267.392554723026	0.451514102994
0	8738	267.883093984598	0.490539261572
0	8816	268.85839765829	0.975303673692
0	8824	268.94980694069	0.0914092824
0	8832	269.708139343933	0.758332403243
0	8972	276.333005070263	6.62486572633
0	8991	277.270570709675	0.937565639412
0	9145	282.446389232973	5.175818523298
0	9169	283.10764705429	0.661257821317
0	9212	285.438334906514	2.330687852224
0	9244	286.177032544063	0.738697637549
0	9252	286.306908157674	0.129875613611
0	9387	289.074116448355	2.767208290681
0	9422	289.962303717596	0.888187269241
0	9492	291.545373119913	1.583069402317
0	9500	291.604372151304	0.058999031391
0	9548	293.063862248397	1.459490097093
0	9597	294.644322610829	1.580460362432
0	9669	296.409790951906	1.765468341077
0	9747	298.642921412656	2.23313046075
0	9812	299.995857477106	1.35293606445
0	9871	302.373054400646	2.37719692354
0	9944	303.541766760311	1.168712359665
0	9971	305.438129255699	1.896362495388
0	10003	306.258865118115	0.820735862416
0	10011	306.288347858465	0.02948274035
0	10019	306.67486864432	0.386520785855
0	10065	309.156789620127	2.481920975807
0	10124	310.382881422921	1.226091802794
0	10140	310.540276172179	0.157394749258
0	10148	310.614201703379	0.0739255312
0	10156	310.634977770115	0.020776066736
0	10243	314.31657122374	3.681593453625
0	10259	315.126809382215	0.810238158475
0	10340	317.19553028536	2.068720903145
0	10399	318.318531026418	1.123000741058
0	10415	318.849381878176	0.530850851758
0	10447	321.593940907873	2.744559029697
0	10523	326.424707586062	4.830766678189
0	10531	327.023046500741	0.598338914679
0	10712	331.35289302467	4.329846523929
0	10798	334.473449779012	3.120556754342
0	10822	334.731814387887	0.258364608875
0	10838	335.077288776236	0.345474388349
0	10870	337.198634901948	2.121346125712
0	10878	337.238487055884	0.039852153936
0	10921	337.926878775909	0.688391720025
0	11008	339.941799171275	2.014920395366
0	11151	344.818492911496	4.876693740221
0	11218	347.015209282812	2.196716371316
0	11258	348.018234605631	1.003025322819
0	11266	348.175236567423	0.157001961792
0	11282	348.427235956713	0.25199938929
0	11298	348.869003643491	0.441767686778
0	11385	351.960666676693	3.091663033202
0	11539	357.563225554552	5.602558877859
0	11563	358.013373090971	0.450147536419
0	11714	362.280292762603	4.266919671632
0	11792	363.872450364709	1.592157602106
0	11848	365.226121939528	1.353671574819
0	11929	367.155552655017	1.929430715489
0	12001	369.140230047311	1.984677392294
0	12009	369.360640840744	0.220410793433
0	12025	370.017316555381	0.656675714637
0	12206	376.170189160298	6.152872604917
0	12214	376.341200738217	0.171011577919
0	12604	387.69418272865	11.352981990433
0	12828	396.18961334539	8.49543061674
0	12906	399.804284039482	3.614670694092
0	12914	399.935888997002	0.13160495752
0	12933	400.176791274255	0.240902277253
0	12952	402.108853931197	1.932062656942
0	13052	405.227451284204	3.118597353007
0	13103	406.082058938132	0.854607653928
0	13122	406.270289736102	0.18823079797
0	13149	406.788737832254	0.518448096152
0	13157	407.036391647767	0.247653815513
0	13192	408.12281230352	1.086420655753
0	13227	409.177949239775	1.055136936255
0	13251	411.458868283679	2.280919043904
0	13259	411.935812451656	0.476944167977
0	13267	412.223016813093	0.287204361437
0	13329	413.690171770449	1.467154957356
0	13345	414.012029479778	0.321857709329
0	13377	414.564522491293	0.552493011515
0	13442	416.376979549932	1.812457058639
0	13450	416.509246976971	0.132267427039
0	13488	417.710985002206	1.201738025235
0	13504	418.097128884967	0.386143882761
0	13585	420.974902800239	2.877773915272
0	13593	421.16939764263	0.194494842391
0	13601	421.290960275344	0.121562632714
0	13609	421.626254868475	0.335294593131
0	13641	422.219866452848	0.593611584373
0	13679	423.161333993277	0.941467540429
0	13687	423.298729291696	0.137395298419
0	13703	423.986171751619	0.687442459923
0	13849	431.526290092704	7.540118341085
0	13857	431.740169565388	0.213879472684
0	13898	432.703826002038	0.96365643665
0	13963	434.399200758892	1.695374756854
0	13971	434.647119878976	0.247919120084
0	13979	434.708315149064	0.061195270088
0	13987	434.91953674384	0.211221594776
0	13995	434.985945512224	0.066408768384
0	14019	435.564716795192	0.578771282968
0	14100	439.842768439562	4.27805164437
0	14181	445.990775334742	6.14800689518
0	14219	446.299988124041	0.309212789299
0	14243	447.081968741414	0.781980617373
0	14267	447.998452159654	0.91648341824
0	14275	448.056762995077	0.058310835423
0	14307	449.466218264184	1.409455269107
0	14401	453.293361430094	3.82714316591
0	14420	453.683079398233	0.389717968139
0	14447	453.839819716968	0.156740318735
0	14463	454.191943922318	0.35212420535
0	14501	454.839122484191	0.647178561873
0	14574	455.840316281408	1.001193797217
0	14655	459.724285270648	3.88396898924
0	14663	459.78569131942	0.061406048772
0	14727	461.089480124992	1.303788805572
0	14735	461.092606692081	0.003126567089
0	14759	462.120091018752	1.027484326671
0	14802	462.953938708124	0.833847689372
0	14988	468.410093532133	5.456154824009
0	15004	468.56411520217	0.154021670037
0	15012	468.646897275135	0.082782072965
0	15020	468.696322024451	0.049424749316
0	15039	469.299385808704	0.603063784253
0	15087	470.290329968673	0.990944159969
0	15103	470.861004756325	0.570674787652
0	15138	471.624300085666	0.763295329341
0	15170	472.650457394103	1.026157308437
0	15178	472.812289348029	0.161831953926
0	15186	472.852112780265	0.039823432236
0	15205	473.547555689875	0.69544290961
0	15243	474.10640083672	0.558845146845
0	15289	475.818904224624	1.712503387904
0	15329	477.133282737069	1.314378512445
0	15372	478.284201979592	1.150919242523
0	15388	479.156448506429	0.872246526837
0	15423	479.596419083346	0.439970576917
0	15439	480.05017544454	0.453756361194
0	15447	480.197067712483	0.146892267943
0	15560	483.307593251577	3.110525539094
0	15568	483.527356779086	0.219763527509
0	15652	486.29200638357	2.764649604484
0	15679	487.808421038531	1.516414654961
0	15741	488.822433529924	1.014012491393
0	15760	489.549477371556	0.727043841632
0	15824	491.098758947872	1.549281576316
0	15832	491.66016405272	0.561405104848
0	15840	491.677816507265	0.017652454545
0	15856	491.796701329088	0.118884821823
0	15907	493.269595486218	1.47289415713
0	15915	493.528178558703	0.258583072485
0	15931	493.664955332574	0.136776773871
0	16061	497.666318938706	4.001363606132
0	16088	498.000171746973	0.333852808267
0	16104	498.423106902718	0.422935155745
0	16131	499.172037351926	0.748930449208
1	46	0.294464144271	5.744e-005
1	65	1.052197276294	7.872e-005
1	84	2.353786058412	9.512e-005
1	92	2.946883450957	8.232e-005
1	100	3.194123311124	9.144e-005
1	119	3.516494341946	7e-005
1	127	3.843546345969	7.344e-005
1	146	4.662600082856	7.448e-005
1	154	4.897515594795	9.792e-005
1	162	5.087487720044	7.544e-005
1	170	5.221788915813	0.00010144
1	178	5.265675474203	6.776e-005
1	186	5.430740296818	9.256e-005
1	194	5.601223326342	6.808e-005
1	202	5.937686061797	7.44e-005
1	210	6.351475726673	7.208e-005
1	218	6.458525535108	8.544e-005
1	237	6.743296067821	6.168e-005
1	245	7.165682804986	8.064e-005
1	253	7.312019882133	6.496e-005
1	272	8.146439081459	7.904e-005
1	280	8.172059260713	8.976e-005
1	288	8.497902026373	7.672e-005
1	296	8.528162745303	7e-005
1	326	10.054086581046	8.432e-005
1	334	10.055910775239	8.856e-005
1	342	10.071460502962	7.752e-005
1	350	10.356633694112	5.952e-005
1	380	11.115525242705	8.712e-005
1	432	11.901371617377	9.4e-005
1	440	12.847530879225	0.0001144
1	448	13.007963187043	8.608e-005
1	456	13.133643000746	7.16e-005
1	464	13.61810217913	7.944e-005
1	472	14.803886549333	6.968e-005
1	480	15.001329521604	9.088e-005
1	488	15.183192997348	9.528e-005
1	496	15.707318824999	7.136e-005
1	504	16.075363153864	7.184e-005
1	512	16.623377516466	7.152e-005
1	542	17.737953584066	7.872e-005
1	550	18.271779657279	8.976e-005
1	558	18.308909356374	8.904e-005
1	566	18.400771957133	7.088e-005
1	574	18.615687322552	8.512e-005
1	582	18.866471447812	7.568e-005
1	590	19.024545118155	8.04e-005
1	598	19.498742731435	8.648e-005
1	606	19.733060057953	6.28e-005
1	614	19.826923577843	8.128e-005
1	633	20.251149911326	7.904e-005
1	641	20.549767502787	6.96e-005
1	649	20.645408824952	8.424e-005
1	668	21.357365495092	6.8e-005
1	698	21.646500718879	6.736e-005
1	706	22.045076694745	7.16e-005
1	714	22.094416964554	6.608e-005
1	733	22.711017865862	8.592e-005
1	741	23.619593109503	7.864e-005
1	782	24.368999967909	9.28e-005
1	790	24.530047213195	8.528e-005
1	798	25.148015232126	8.88e-005
1	817	26.561697298034	7.392e-005
1	825	26.742927058427	8.128e-005
1	833	26.897273647906	9.256e-005
1	841	27.057094791485	9.08e-005
1	849	27.071710728997	0.00010608
1	857	27.370934682754	0.00010032
1	887	28.111375304765	7.904e-005
1	895	28.180722389848	9.944e-005
1	903	28.522265803238	7.64e-005
1	922	29.178707493087	7.704e-005
1	930	29.606420402984	8.152e-005
1	938	30.063801753991	8.08e-005
1	946	30.282081359973	7.248e-005
1	954	30.636925963346	8.056e-005
1	962	30.750281923496	6.96e-005
1	970	31.271566747294	8.4e-005
1	978	31.75961379096	0.0001016
1	986	32.04787540867	8.872e-005
1	1016	32.538345277762	6.544e-005
1	1035	32.822866309206	7.072e-005
1	1043	33.284719630581	8.672e-005
1	1062	33.852299539314	7.928e-005
1	1070	34.002631442625	8.808e-005
1	1078	34.142878215801	6.88e-005
1	1086	34.433049949889	8.728e-005
1	1116	36.126939421163	8.248e-005
1	1124	36.299072164866	8.784e-005
1	1132	36.377661043208	8.688e-005
1	1162	37.066765238553	6.568e-005
1	1181	37.589057651716	6.552e-005
1	1189	37.707682915465	6.592e-005
1	1197	37.833840569477	9.24e-005
1	1205	37.837939966223	0.00011968
1	1213	38.337234650284	8.96e-005
1	1232	38.618771513549	8.912e-005
1	1240	38.629212106836	7.192e-005
1	1248	38.725640595246	8.208e-005
1	1256	38.938723244273	9.192e-005
1	1264	39.013325958414	7.696e-005
1	1283	39.658124195756	7.752e-005
1	1291	39.863210991079	9.944e-005
1	1299	40.234649862779	6.944e-005
1	1318	42.438604820579	7.44e-005
1	1326	42.648980645249	7.136e-005
1	1345	42.940118343161	8.672e-005
1	1353	43.304067774859	5.096e-005
1	1361	43.750983987906	5.528e-005
1	1369	43.998202130559	8.28e-005
1	1377	44.037956517599	7.616e-005
1	1385	44.170093009575	6.68e-005
1	1393	44.188022485487	8.992e-005
1	1401	45.533611652936	5.568e-005
1	1409	45.660407893883	7.496e-005
1	1428	45.795371478844	9.848e-005
1	1458	46.455687289051	9.512e-005
1	1466	46.607352891471	9.72e-005
1	1474	46.70480062826	8.792e-005
1	1493	46.915731042133	8.288e-005
1	1501	47.114838279642	7.928e-005
1	1509	47.858789089433	7.128e-005
1	1528	47.953315605605	8.168e-005
1	1536	48.388562367474	8.816e-005
1	1544	48.530073641012	0.00010064
1	1563	49.071907129457	7.48e-005
1	1571	49.175121423949	5.552e-005
1	1579	49.447806019583	7.736e-005
1	1587	49.547562886529	6.44e-005
1	1595	49.781762576042	8.344e-005
1	1603	50.171535965897	6.392e-005
1	1611	50.274815950046	7.616e-005
1	1630	50.383946539327	9.344e-005
1	1649	50.688085181732	7.104e-005
1	1657	50.856880788073	7.128e-005
1	1665	50.92652176437	9.256e-005
1	1673	51.050433136866	8.248e-005
1	1681	51.30002428493	0.0001092
1	1689	51.503353564145	7.392e-005
1	1708	52.434049120317	7.2e-005
1	1716	52.539528210716	8.064e-005
1	1724	53.06731351314	0.00010616
1	1732	53.469388417571	9.936e-005
1	1740	53.542144976645	7.88e-005
1	1748	54.41266900621	6.224e-005
1	1756	54.504941874324	9.008e-005
1	1775	55.15685315647	9.008e-005
1	1783	55.507786928014	8.704e-005
1	1802	56.662518595885	8.92e-005
1	1832	57.890170511313	6.816e-005
1	1851	58.241967135167	8.544e-005
1	1859	58.558861735911	7.536e-005
1	1878	58.820024914061	8.64e-005
1	1886	59.004890109556	7.824e-005
1	1894	59.48289106483	6.392e-005
1	1913	60.493193817822	9.736e-005
1	1932	60.830690605988	9.704e-005
1	1940	61.059915886185	9.992e-005
1	1970	61.991999837437	0.00010144
1	1978	62.276643938942	6.032e-005
1	1986	62.509698422629	8.72e-005
1	1994	62.832829240703	5.96e-005
1	2002	62.995103257996	7.672e-005
1	2010	63.192989247622	9.088e-005
1	2018	63.349393090093	8.328e-005
1	2026	63.431448798266	7.168e-005
1	2034	64.071999053518	6.568e-005
1	2042	64.271895451594	7.312e-005
1	2061	65.298055584466	7.096e-005
1	2080	65.846241237717	8.68e-005
1	2088	65.954515080867	6.504e-005
1	2096	67.189618123044	8.128e-005
1	2104	67.505041240341	8.92e-005
1	2112	67.59551389086	5.896e-005
1	2120	68.515553723264	7.56e-005
1	2128	68.737971556619	9.28e-005
1	2136	68.751160945436	7.168e-005
1	2144	68.763866982952	9.968e-005
1	2152	68.804701864298	6.896e-005
1	2160	69.254875190354	0.00010136
1	2168	69.947643083426	7.984e-005
1	2198	70.076287226393	8.16e-005
1	2206	70.435033294615	5.96e-005
1	2225	71.6723798909	9.056e-005
1	2255	72.637526086459	9.408e-005
1	2263	72.878591033346	9.984e-005
1	2271	73.236441836209	0.00010512
1	2301	73.448963337111	9.4e-005
1	2320	74.664878627142	7.304e-005
1	2328	75.142248991992	7.184e-005
1	2336	75.232324675437	9.536e-005
1	2344	75.329509329865	6.72e-005
1	2352	75.396730547606	7.928e-005
1	2371	75.482325379233	7.912e-005
1	2390	76.891957670742	4.592e-005
1	2398	77.126800217221	6.704e-005
1	2406	77.61413612284	0.00010112
1	2425	78.378940652263	9.344e-005
1	2433	78.887291142199	7.936e-005
1	2441	79.194315782359	9.736e-005
1	2449	80.58906217521	9.76e-005
1	2457	80.882131832375	8.024e-005
1	2465	81.503915857771	9.664e-005
1	2473	81.560154543848	7.496e-005
1	2481	81.701561402717	7.4e-005
1	2489	81.802957824529	7.752e-005
1	2497	82.010113109322	8.304e-005
1	2505	82.062858364647	8.072e-005
1	2524	83.132097824937	7.128e-005
1	2532	83.223472557699	8.512e-005
1	2551	84.280774849956	7.624e-005
1	2570	84.943214334635	7.52e-005
1	2578	85.465464945677	8.16e-005
1	2597	85.672005601569	8.048e-005
1	2605	85.711091884789	8.992e-005
1	2613	85.877073873675	8.336e-005
1	2621	86.036011248268	9.456e-005
1	2629	86.113971277473	8.992e-005
1	2637	86.121021795721	9.552e-005
1	2656	87.261752312859	6.744e-005
1	2697	88.828250155416	6.608e-005
1	2716	89.894213125219	8.832e-005
1	2724	89.950243523486	6.528e-005
1	2732	90.07040667515	6.536e-005
1	2740	90.382430576013	7.856e-005
1	2748	90.59861566899	8.52e-005
1	2756	91.614677867932	7.696e-005
1	2775	91.691822289775	6.176e-005
1	2783	91.878955222234	7.048e-005
1	2791	91.956650833219	7.408e-005
1	2810	92.448937365597	9.496e-005
1	2818	92.50318976812	7.688e-005
1	2837	93.711835276773	5.296e-005
1	2845	94.251237248596	6.688e-005
1	2853	94.81446458801	9.088e-005
1	2861	95.067940811874	0.00010312
1	2869	95.535756467787	8.056e-005
1	2888	95.964344741602	7.568e-005
1	2896	96.118072443134	5.856e-005
1	2904	96.577237744664	8.176e-005
1	2912	96.651693548146	8.736e-005
1	2920	96.686321001776	8.096e-005
1	2972	98.175969768686	4.776e-005
1	2991	98.669845269634	8.904e-005
1	2999	99.117956651103	8.608e-005
1	3018	99.655431946255	7.272e-005
1	3026	99.689035624758	8.512e-005
1	3034	100.899736326272	8.672e-005
1	3042	100.976546487238	7.872e-005
1	3050	101.490799888556	9.08e-005
1	3058	101.641743223587	8.416e-005
1	3066	101.988030320709	7.184e-005
1	3085	102.18879373414	7.368e-005
1	3093	102.317543109823	7.968e-005
1	3101	102.421984434435	8.216e-005
1	3109	103.274251978441	7.472e-005
1	3128	103.762901667216	8.512e-005
1	3136	103.893198047933	6.872e-005
1	3144	103.910314600029	7.384e-005
1	3152	104.489949505309	7.936e-005
1	3160	104.530440702709	6.736e-005
1	3168	104.596066808845	8.592e-005
1	3187	105.703493303466	8.056e-005
1	3195	105.769941773236	7.584e-005
1	3203	105.892134768408	9.304e-005
1	3211	105.900194482306	7.6e-005
1	3219	105.911593669209	7.136e-005
1	3227	106.226727226248	0.00010128
1	3246	106.342555418686	8.96e-005
1	3265	107.076570930579	7.088e-005
1	3273	107.647212412227	5.96e-005
1	3281	107.700689794216	7.52e-005
1	3289	107.971668146424	9.248e-005
1	3297	107.982004705537	7.864e-005
1	3305	108.313555040337	9.624e-005
1	3335	108.994391962677	7.744e-005
1	3343	109.337374927531	8.472e-005
1	3351	109.618605866171	7.488e-005
1	3359	109.815655702786	7.504e-005
1	3367	109.931725911307	5.88e-005
1	3375	110.489315806798	8.152e-005
1	3405	111.117358618259	9.112e-005
1	3413	111.153875285563	6.384e-005
1	3421	111.317987483546	6.96e-005
1	3429	111.954906952107	9.288e-005
1	3437	112.340711996533	6.2e-005
1	3445	112.435447110409	4.928e-005
1	3453	112.707623893309	8.52e-005
1	3461	112.729277102188	8.616e-005
1	3469	112.824386255213	9.024e-005
1	3488	113.027714320151	8.08e-005
1	3496	113.265706765845	7.512e-005
1	3504	113.357838638029	9.736e-005
1	3512	113.515094923913	8.64e-005
1	3520	113.709564733475	6.528e-005
1	3528	113.756413411772	4.928e-005
1	3536	113.873423246853	8.672e-005
1	3544	113.886540959045	9.16e-005
1	3552	114.052598596879	8.344e-005
1	3560	114.202765612539	5.248e-005
1	3579	114.549613381368	6.256e-005
1	3587	114.630962765979	8.832e-005
1	3606	114.743842732007	9.688e-005
1	3647	115.144462045285	8.848e-005
1	3655	115.350892808996	6.952e-005
1	3663	115.469643382162	0.00010048
1	3671	116.464834694503	7.464e-005
1	3679	117.521371176003	7.464e-005
1	3687	117.820004772369	8.176e-005
1	3695	118.789195582528	6e-005
1	3703	118.933322743089	7.6e-005
1	3711	119.066248983747	7.752e-005
1	3730	119.59076880598	8.056e-005
1	3749	120.639489474695	8.76e-005
1	3757	120.691831696635	0.00010496
1	3776	121.568472618659	8.16e-005
1	3784	121.600070858825	0.00010448
1	3792	121.608269909671	8.384e-005
1	3800	122.16472913023	8.552e-005
1	3819	122.61683004741	0.0001028
1	3838	122.805425596338	9.232e-005
1	3846	123.058254698607	7.128e-005
1	3854	123.189122288271	6.592e-005
1	3862	123.789761657594	7.04e-005
1	3870	123.933979425332	5.584e-005
1	3878	124.05154299839	0.00011264
1	3886	124.156321639114	8.328e-005
1	3894	124.218108659758	7.624e-005
1	3902	124.309915082403	7.304e-005
1	3921	124.503588770501	8.808e-005
1	3929	124.588758524127	8.6e-005
1	3937	124.925945447409	7.816e-005
1	3945	125.662087187806	9.152e-005
1	3986	127.385553392759	8.736e-005
1	3994	127.472317469304	6.832e-005
1	4002	127.582960132104	8.208e-005
1	4010	127.98376582307	6.488e-005
1	4018	128.207457692117	8.8e-005
1	4037	128.657093130962	6.52e-005
1	4045	129.254067113265	7.92e-005
1	4053	130.078142146617	8.096e-005
1	4061	130.148323594856	7.128e-005
1	4102	131.699849396854	9.024e-005
1	4121	132.193619463272	6.336e-005
1	4129	132.733390179818	7.648e-005
1	4137	132.737150078263	8e-005
1	4156	133.100074732565	7.6e-005
1	4164	133.332822547515	7.568e-005
1	4172	133.559861154846	9.392e-005
1	4180	133.811678835108	8.84e-005
1	4199	134.353191416895	8.448e-005
1	4207	134.418198551792	7.4e-005
1	4215	134.444682948571	7.688e-005
1	4234	134.84175835504	9.416e-005
1	4242	135.932086373301	7.232e-005
1	4250	135.934262781524	6.864e-005
1	4258	136.037843688749	6.984e-005
1	4266	136.117978065236	8.568e-005
1	4274	136.199763000651	8.92e-005
1	4282	136.44093028578	8.816e-005
1	4290	137.024566030173	8.696e-005
1	4309	137.27373255101	9.952e-005
1	4317	137.337640763655	7.64e-005
1	4336	138.022695037562	8.384e-005
1	4344	138.023593346221	7.856e-005
1	4352	138.30954186687	6.832e-005
1	4360	139.221915792072	9.144e-005
1	4368	139.231001674425	8.088e-005
1	4376	139.248083346898	9.704e-005
1	4384	139.288075171507	7.552e-005
1	4392	139.369457833523	8.368e-005
1	4400	139.422393277723	8.072e-005
1	4408	139.499760414902	8.128e-005
1	4438	140.143251060961	5.68e-005
1	4446	140.156717986081	7.184e-005
1	4454	140.243240491845	8.496e-005
1	4462	140.495767799445	0.00010176
1	4470	140.648984611995	8.552e-005
1	4489	141.245418591171	7.32e-005
1	4497	141.362948114027	8.672e-005
1	4516	141.957700259355	6e-005
1	4524	142.471657425438	7.152e-005
1	4532	142.711778019669	7.36e-005
1	4551	143.401056832854	8.52e-005
1	4559	143.459957387017	7.112e-005
1	4578	144.70681009055	8.656e-005
1	4597	144.947105251961	9.968e-005
1	4605	145.144073516443	7.44e-005
1	4613	145.420896424255	7.296e-005
1	4632	146.180862184104	6.92e-005
1	4651	146.212580208372	6.712e-005
1	4659	146.436560252064	8.784e-005
1	4667	147.408672726561	8.536e-005
1	4675	147.605614562338	6.472e-005
1	4705	148.686173320158	0.00010056
1	4713	148.781973654683	9.736e-005
1	4721	148.806035265904	7.104e-005
1	4740	149.93535109398	8.256e-005
1	4748	150.072070525865	7.944e-005
1	4756	150.662917084911	8.992e-005
1	4764	150.97598321205	9.224e-005
1	4772	151.328411050887	9.896e-005
1	4780	151.718470401704	6.856e-005
1	4799	151.853396412892	8.368e-005
1	4807	151.932075320644	7.784e-005
1	4815	152.137351602815	6.744e-005
1	4823	152.225773103157	8.592e-005
1	4831	152.277331018933	6.528e-005
1	4839	152.633867798114	6.744e-005
1	4858	153.456211245108	0.000102
1	4877	153.735023941667	7.888e-005
1	4885	153.837981218397	8.728e-005
1	4893	154.478697784046	8.8e-005
1	4901	154.657602919345	8.2e-005
1	4909	155.099479277833	9.304e-005
1	4917	155.118034384146	5.728e-005
1	4925	155.299486141327	7e-005
1	4933	155.323087193741	7.104e-005
1	4941	155.68113519975	0.00010336
1	4949	155.827344000747	8.512e-005
1	4968	155.935199202524	8.632e-005
1	4976	156.178727866527	7.856e-005
1	4984	156.231083456832	8.384e-005
1	5014	157.924874409957	6.896e-005
1	5022	158.085236446765	0.00010224
1	5030	158.808281416195	8.488e-005
1	5049	159.800143067302	8.984e-005
1	5057	160.012746398693	7.664e-005
1	5065	160.841190395292	8.416e-005
1	5073	161.09655886762	7.928e-005
1	5081	161.212838613631	9.376e-005
1	5089	161.321297437656	8.888e-005
1	5097	161.633593309771	6.192e-005
1	5105	161.700721670552	7.384e-005
1	5113	161.823277613413	6.808e-005
1	5121	162.403569267985	6.432e-005
1	5151	164.031684467251	8.344e-005
1	5181	164.504459639714	9.192e-005
1	5200	165.03978102432	9.304e-005
1	5219	165.918238135549	7.152e-005
1	5227	166.388371127421	9.32e-005
1	5235	166.622142073358	6.896e-005
1	5243	166.64093839286	8.224e-005
1	5262	167.013638979892	8.68e-005
1	5270	167.109285711423	9.224e-005
1	5289	167.34408896341	8.984e-005
1	5308	167.879750152865	9.368e-005
1	5316	168.582042578782	7.688e-005
1	5335	169.28130037846	8.992e-005
1	5343	169.748072825573	9.496e-005
1	5351	169.884938517103	7.448e-005
1	5359	170.089074452087	7.928e-005
1	5367	170.45909709793	7.752e-005
1	5375	170.984124788173	4.736e-005
1	5383	171.022912023783	7.856e-005
1	5391	171.866462854191	0.00010464
1	5399	172.240186168195	5.168e-005
1	5407	172.653595399384	7.48e-005
1	5415	172.846963110368	7.928e-005
1	5434	173.330185771735	7.832e-005
1	5442	173.716981865471	5.824e-005
1	5450	173.768071022382	8.68e-005
1	5458	174.138646231117	8.8e-005
1	5466	174.31300311155	8.856e-005
1	5474	174.480355182971	7e-005
1	5482	175.266789605175	6.896e-005
1	5501	176.175005144457	8.28e-005
1	5520	176.982399042854	0.000102
1	5539	177.154694825903	7.656e-005
1	5547	177.226837179632	8.024e-005
1	5566	177.601596957878	6.064e-005
1	5596	178.125108223985	7.272e-005
1	5615	178.509539388944	7.704e-005
1	5623	178.538560341224	9.904e-005
1	5631	178.68740922121	7.704e-005
1	5650	178.808558004294	6.112e-005
1	5658	178.883727056151	6.88e-005
1	5666	178.905188847454	8.608e-005
1	5685	179.118035459488	5.96e-005
1	5693	179.479335820961	7.848e-005
1	5701	179.616588864086	8.072e-005
1	5709	179.760894346287	9.4e-005
1	5728	180.01830126892	6.744e-005
1	5736	180.37763885197	9.224e-005
1	5744	180.521919926768	7.336e-005
1	5752	180.921709454904	8.424e-005
1	5760	181.118482045516	8.416e-005
1	5768	181.358453897784	7.528e-005
1	5787	181.870698382419	7.752e-005
1	5795	181.892325742444	8.208e-005
1	5803	181.945937848617	8.512e-005
1	5811	181.953663919619	8.504e-005
1	5819	182.722594809912	8.192e-005
1	5827	182.85951820307	8.024e-005
1	5835	182.963947686382	7.76e-005
1	5843	183.259736955141	7.008e-005
1	5851	183.361296613074	8.456e-005
1	5859	183.542983897694	7.784e-005
1	5867	183.719504587139	8.344e-005
1	5875	183.732254736052	0.00010304
1	5883	184.095964152976	9.408e-005
1	5891	184.22471273154	7.048e-005
1	5910	184.358989127291	8.704e-005
1	5918	184.387357797478	8.64e-005
1	5926	184.547365897457	7.936e-005
1	5934	184.599578820409	7.936e-005
1	5942	184.626877061885	9.024e-005
1	5950	185.043426282053	9.432e-005
1	5958	185.266065841279	5.928e-005
1	5966	185.453986358663	6.912e-005
1	5974	185.878202064387	7.224e-005
1	5982	186.040328445315	7.416e-005
1	5990	186.347978718014	8.592e-005
1	5998	186.625412135445	7.832e-005
1	6006	186.636294117868	8.296e-005
1	6025	187.325690113255	7.472e-005
1	6033	187.539854858899	8.08e-005
1	6052	187.646225455514	9.408e-005
1	6060	188.364140383453	7.392e-005
1	6079	188.969184279519	9e-005
1	6087	188.978337331987	7.776e-005
1	6095	189.061286458112	7.728e-005
1	6103	189.083675427398	9.208e-005
1	6111	189.178340747957	0.00010296
1	6119	189.2995954413	7.048e-005
1	6127	189.309350820255	9.928e-005
1	6135	189.924048725326	8.288e-005
1	6143	190.038517734107	5.536e-005
1	6151	190.170901814584	7.872e-005
1	6181	190.637410623985	8.264e-005
1	6189	190.851870984351	8.552e-005
1	6197	191.180342850834	9.88e-005
1	6227	191.827037500608	7.824e-005
1	6235	191.914124021892	9.296e-005
1	6243	191.988205820443	0.00010664
1	6262	192.234531761938	8.768e-005
1	6270	192.836263045222	6.864e-005
1	6278	192.952542853781	8.88e-005
1	6286	193.41949324494	7.592e-005
1	6305	193.531058905557	8.128e-005
1	6313	193.80368401589	0.00010056
1	6332	193.885417464013	0.0001132
1	6340	194.257314639597	8.928e-005
1	6359	195.766324612609	7.248e-005
1	6367	195.852691867481	6.328e-005
1	6375	195.858955783847	9.4e-005
1	6383	196.152431823131	7.248e-005
1	6402	197.641858747033	9.632e-005
1	6410	197.655842890666	8.368e-005
1	6418	197.725089756842	0.00010152
1	6426	197.839400937981	7.464e-005
1	6434	198.082827287908	6.856e-005
1	6442	198.212196409847	0.00010024
1	6450	198.381323330297	8.112e-005
1	6469	199.098907162572	6.368e-005
1	6477	199.114572466391	9.184e-005
1	6485	199.679165269279	6.888e-005
1	6493	199.804338311003	7.8e-005
1	6534	201.268263193596	7.344e-005
1	6542	201.273604542407	7.512e-005
1	6550	201.372819806314	7.888e-005
1	6558	201.722762152601	8.64e-005
1	6588	202.59337882673	0.00011824
1	6596	202.635297367895	7.504e-005
1	6604	202.679304958761	7.392e-005
1	6612	202.721209529161	6.536e-005
1	6620	202.803695316639	9.256e-005
1	6639	203.73204327294	8.312e-005
1	6647	203.747845791072	7.256e-005
1	6666	204.008467604952	7.6e-005
1	6674	204.071308516502	8.672e-005
1	6682	204.134825024819	7.392e-005
1	6701	204.641475159809	7.792e-005
1	6709	204.835878553212	7.416e-005
1	6717	205.534920531819	9.152e-005
1	6725	205.542322665033	7.456e-005
1	6733	205.944429610456	4.88e-005
1	6741	206.271472205756	8.008e-005
1	6749	206.642601791491	7.448e-005
1	6757	206.665792815213	8.792e-005
1	6765	207.984959935081	7.104e-005
1	6784	208.969060247977	7.704e-005
1	6792	209.855478795165	7.992e-005
1	6811	210.915111443301	9.04e-005
1	6819	211.921490438888	7.896e-005
1	6827	211.956051403747	0.00010496
1	6835	212.757330375444	5.792e-005
1	6843	212.811795496043	9.088e-005
1	6851	213.406909259962	9.952e-005
1	6859	213.678557894866	8.264e-005
1	6900	215.10440427498	8.136e-005
1	6919	215.722543768759	8.224e-005
1	6938	215.802390313306	8.312e-005
1	6946	215.950130699766	0.00010776
1	6954	216.496478420284	7.832e-005
1	6984	217.753434469747	0.00010176
1	6992	218.100191342912	8.4e-005
1	7000	218.139305352657	0.0001012
1	7019	218.346457594696	0.0001004
1	7027	218.551249434492	8.688e-005
1	7035	218.892366917414	6.6e-005
1	7043	218.895750031173	5.8e-005
1	7051	218.89905575572	7.968e-005
1	7081	219.494518459118	8.976e-005
1	7089	219.728311232656	8.536e-005
1	7097	219.982266726794	8.84e-005
1	7105	220.25845888104	7.68e-005
1	7113	220.523462867004	6.808e-005
1	7121	220.680291811719	9.192e-005
1	7129	220.701111041519	6.456e-005
1	7148	221.778783005137	0.0001132
1	7156	221.85566278564	4.664e-005
1	7164	222.183570564022	6.048e-005
1	7172	222.198190321212	6.856e-005
1	7180	222.993929738677	8.44e-005
1	7188	223.620237749694	8.472e-005
1	7196	223.890348304436	8.008e-005
1	7204	223.927338683665	7.28e-005
1	7212	224.286554781413	9.048e-005
1	7220	224.603192432789	6.688e-005
1	7228	224.835379779258	9.776e-005
1	7236	224.865056535238	7.432e-005
1	7244	224.982402789729	6.992e-005
1	7263	225.696545640973	5.928e-005
1	7271	226.328364046745	8.4e-005
1	7279	226.526330886065	8.352e-005
1	7287	226.696731463117	7.784e-005
1	7295	227.104881134413	8.472e-005
1	7314	228.083708649695	7.736e-005
1	7322	228.130565503147	7.624e-005
1	7330	228.152928938275	8.216e-005
1	7360	229.473762723968	8.984e-005
1	7379	229.621476538378	6.928e-005
1	7398	230.684991100666	7.32e-005
1	7417	231.041989314375	9.152e-005
1	7436	231.228957315306	7.152e-005
1	7455	231.594535740945	9.56e-005
1	7463	232.051239270177	7.72e-005
1	7471	232.268604491609	8.704e-005
1	7479	233.467436455374	0.00010248
1	7487	233.866431080567	9.608e-005
1	7506	234.111527609226	8.376e-005
1	7514	234.601068757152	9.08e-005
1	7522	234.836746748278	6.92e-005
1	7530	234.95574561357	8.152e-005
1	7538	235.272055281805	7.608e-005
1	7546	235.357013259691	7.552e-005
1	7565	235.907536024671	8.224e-005
1	7573	236.074663739481	7.592e-005
1	7581	236.264170402323	8.736e-005
1	7589	236.978465124721	7.024e-005
1	7597	237.478062774007	7.456e-005
1	7605	237.548929692353	9e-005
1	7613	237.830866133746	8.048e-005
1	7621	238.150844624196	9.104e-005
1	7629	238.258300309365	8.352e-005
1	7637	238.750136404545	7.008e-005
1	7656	239.33654902202	8.112e-005
1	7675	239.651338491753	7.976e-005
1	7683	239.739808400759	8.304e-005
1	7691	240.092936772016	8.744e-005
1	7710	240.95740367419	8.128e-005
1	7718	241.005759914327	7.976e-005
1	7748	243.188985539941	8.832e-005
1	7767	243.354066798113	7.688e-005
1	7786	244.205358345282	8.672e-005
1	7805	244.356511079389	8.256e-005
1	7824	244.597319029855	9.824e-005
1	7832	244.701819200757	6.8e-005
1	7840	245.008243977166	8.608e-005
1	7848	245.29092194061	0.00010392
1	7867	245.617625826214	9.448e-005
1	7875	245.659723553256	7.12e-005
1	7883	245.724036735693	6.768e-005
1	7891	245.78472208879	6.608e-005
1	7899	246.471989998638	8.272e-005
1	7907	246.796979104391	7.472e-005
1	7915	246.851330135133	7.688e-005
1	7923	247.769167799728	8.512e-005
1	7931	247.906718753357	7.44e-005
1	7950	248.805361647585	7.4e-005
1	7958	248.881345660428	8.344e-005
1	7966	249.055308373238	8.992e-005
1	7974	249.234404505552	8.736e-005
1	7982	249.414473673407	6.768e-005
1	8012	250.24663203046	8.744e-005
1	8031	250.651304100679	7.84e-005
1	8050	251.340216595663	0.00011224
1	8058	251.546839506955	8.864e-005
1	8077	251.746132599899	9.608e-005
1	8085	251.81983807079	9.92e-005
1	8093	252.275731883083	9.44e-005
1	8101	252.488648016027	5.872e-005
1	8109	252.676296727142	8.128e-005
1	8117	252.733060933775	9.552e-005
1	8125	252.764133323114	5.448e-005
1	8133	252.925366153237	8.008e-005
1	8141	252.936590815195	6.304e-005
1	8149	253.007887922937	8.856e-005
1	8157	253.283396702547	7.448e-005
1	8165	253.822964899808	8.216e-005
1	8173	253.883313384346	7.416e-005
1	8181	253.897030766726	6.536e-005
1	8189	254.22823878877	6.992e-005
1	8197	254.569351377503	7.144e-005
1	8216	255.036265109885	7.36e-005
1	8224	255.162230946574	8.88e-005
1	8243	256.096026481784	8.752e-005
1	8262	256.225320490878	5.824e-005
1	8281	256.752494105065	7.992e-005
1	8289	256.840396257631	8.152e-005
1	8297	256.893927554343	7.568e-005
1	8305	256.953664868875	8.032e-005
1	8313	257.244887284726	8.104e-005
1	8321	257.248531817023	0.00010048
1	8329	257.266712241549	7.616e-005
1	8348	257.300923067799	7.952e-005
1	8356	257.543131345225	7.352e-005
1	8364	257.859889021622	9.52e-005
1	8372	258.646830988724	6.528e-005
1	8380	258.751255279985	6.552e-005
1	8388	258.792955142593	8.264e-005
1	8396	258.835587290274	8.312e-005
1	8404	259.589297370575	7.096e-005
1	8412	259.672848997067	9.584e-005
1	8420	259.694346355352	7.408e-005
1	8428	259.939545679826	9.056e-005
1	8436	260.274042042518	7.464e-005
1	8444	260.483481797881	7.432e-005
1	8485	261.605078560647	8.168e-005
1	8493	261.673017878754	8.384e-005
1	8501	261.921065176847	8.688e-005
1	8520	262.030962626088	0.00011
1	8528	262.232335756061	8.296e-005
1	8547	262.53841053514	9e-005
1	8555	262.776785569146	9.936e-005
1	8563	262.961208410722	8.192e-005
1	8571	263.061215344985	8.88e-005
1	8579	263.540114551523	7.232e-005
1	8598	264.437784983739	6.528e-005
1	8606	264.447099394723	0.00010136
1	8614	265.435194579131	6.44e-005
1	8622	265.440279189684	8.072e-005
1	8630	265.473458166793	9.472e-005
1	8638	265.732331005063	8.008e-005
1	8646	265.836373683308	7.568e-005
1	8654	266.06330116034	9.92e-005
1	8673	266.760255316852	0.00010392
1	8692	266.941040620032	8.72e-005
1	8700	267.17341278219	9.88e-005
1	8708	267.392554723026	6.528e-005
1	8738	267.883093984598	7.144e-005
1	8746	267.955793360242	7.664e-005
1	8754	267.984963398925	0.00010024
1	8762	268.151727390757	9.576e-005
1	8770	268.164173641382	6.848e-005
1	8778	268.28145945482	7.16e-005
1	8797	268.724129822186	7.136e-005
1	8816	268.85839765829	7.832e-005
1	8824	268.94980694069	8.208e-005
1	8832	269.708139343933	7.192e-005
1	8840	270.303396376936	6.84e-005
1	8848	270.473957924839	9.592e-005
1	8856	270.678045361026	7.24e-005
1	8886	271.974080472601	9.632e-005
1	8894	271.997119801184	8.08e-005
1	8902	272.376758599965	7.736e-005
1	8910	272.947999227959	7.472e-005
1	8929	273.950378944227	8.704e-005
1	8937	274.229260731354	8.272e-005
1	8956	275.52050427583	8e-005
1	8964	275.631123813527	8.632e-005
1	8972	276.333005070263	9.344e-005
1	8991	277.270570709675	7.864e-005
1	9010	277.588582682733	8.504e-005
1	9029	278.771071834151	8.336e-005
1	9037	278.993380019205	7.088e-005
1	9056	280.058496560098	7.312e-005
1	9075	280.148480204352	6.944e-005
1	9083	280.918833384141	8.488e-005
1	9102	281.966771916838	8.128e-005
1	9121	282.259142110812	8.528e-005
1	9129	282.363943907295	6.352e-005
1	9137	282.390498354888	8.976e-005
1	9145	282.446389232973	6.88e-005
1	9153	282.556402272468	6.928e-005
1	9161	282.67984159504	8.896e-005
1	9169	283.10764705429	7.864e-005
1	9188	283.770015597839	6.08e-005
1	9196	285.191361511419	8.64e-005
1	9204	285.345072598067	6.64e-005
1	9212	285.438334906514	8.232e-005
1	9220	285.8443009101	8.344e-005
1	9228	285.957763499867	9.16e-005
1	9236	286.172367577939	9.616e-005
1	9244	286.177032544063	7.368e-005
1	9252	286.306908157674	8.48e-005
1	9282	287.005094769408	7.544e-005
1	9290	287.397311887525	9.112e-005
1	9320	287.523211599798	9.44e-005
1	9339	287.742420077893	7.84e-005
1	9347	287.967971515499	9.568e-005
1	9355	288.256578535531	7.072e-005
1	9363	288.275608414395	9.992e-005
1	9371	288.485903758375	4.592e-005
1	9379	288.515202233593	6.696e-005
1	9387	289.074116448355	7.456e-005
1	9395	289.101909936729	7.144e-005
1	9414	289.875165188033	7.008e-005
1	9422	289.962303717596	6.88e-005
1	9430	289.967582500966	8.544e-005
1	9449	290.289093172742	7.536e-005
1	9457	290.626144951966	8.816e-005
1	9465	290.660065017567	9.336e-005
1	9484	290.971048534228	9.584e-005
1	9492	291.545373119913	7.664e-005
1	9500	291.604372151304	8.248e-005
1	9508	291.893790090792	7.928e-005
1	9516	292.106553917919	9.544e-005
1	9524	292.161313113647	8.072e-005
1	9532	292.322245097958	7.968e-005
1	9540	292.662986784821	9.472e-005
1	9548	293.063862248397	6.728e-005
1	9556	293.209699099441	7.584e-005
1	9597	294.644322610829	7.704e-005
1	9605	295.501056740597	7.68e-005
1	9613	295.681263872747	0.00010064
1	9621	295.69760310633	8.872e-005
1	9629	295.965805387007	7.92e-005
1	9637	295.987402016403	8.288e-005
1	9645	296.056895883782	7.496e-005
1	9653	296.175800710483	9.088e-005
1	9661	296.227488426185	7.68e-005
1	9669	296.409790951906	5.92e-005
1	9677	296.513109156902	9.4e-005
1	9685	296.745569551756	6.368e-005
1	9693	297.123330720508	8.216e-005
1	9712	297.826010069986	0.00010088
1	9720	297.830794517887	6.632e-005
1	9739	298.623326879259	9.36e-005
1	9747	298.642921412656	8.096e-005
1	9755	298.706883849089	8.808e-005
1	9763	298.821355120166	9.944e-005
1	9804	299.977818911546	8.552e-005
1	9812	299.995857477106	7.112e-005
1	9820	300.825834560771	8e-005
1	9839	301.004583693759	7.568e-005
1	9847	301.854247982214	5.8e-005
1	9855	301.8923571701	8.904e-005
1	9863	302.089936201883	9.464e-005
1	9871	302.373054400646	8.496e-005
1	9879	302.441609294277	6.192e-005
1	9898	302.665029259305	6.912e-005
1	9906	302.824130934223	8.016e-005
1	9936	303.188863675292	7.352e-005
1	9944	303.541766760311	7.904e-005
1	9963	305.425102728683	6.304e-005
1	9971	305.438129255699	9.536e-005
1	9979	305.858224397403	7.6e-005
1	9987	305.92640230557	8.096e-005
1	9995	305.942775703979	6.288e-005
1	10003	306.258865118115	7.56e-005
1	10011	306.288347858465	9.56e-005
1	10019	306.67486864432	7.072e-005
1	10038	307.200588539283	7.416e-005
1	10057	308.545219363408	8.976e-005
1	10065	309.156789620127	7.232e-005
1	10073	309.269420238786	8.096e-005
1	10092	310.040775337195	5.52e-005
1	10100	310.049987882762	8.16e-005
1	10108	310.209842316979	4.808e-005
1	10116	310.311165572377	7.184e-005
1	10124	310.382881422921	6.104e-005
1	10132	310.435038800325	8.152e-005
1	10140	310.540276172179	8.064e-005
1	10148	310.614201703379	8.784e-005
1	10156	310.634977770115	9.016e-005
1	10164	310.882158453933	8.072e-005
1	10172	311.540926854818	7.824e-005
1	10180	312.144815628605	9.616e-005
1	10243	314.31657122374	7.096e-005
1	10251	314.814641097362	9.632e-005
1	10259	315.126809382215	9.24e-005
1	10267	315.224344085355	6.792e-005
1	10275	315.338284598127	8.584e-005
1	10316	316.224824554792	7.976e-005
1	10324	316.927754247227	7.936e-005
1	10332	317.155932376295	8.104e-005
1	10340	317.19553028536	7.328e-005
1	10348	317.385625233359	9.936e-005
1	10356	317.689155298003	9.016e-005
1	10364	317.901999542211	9.984e-005
1	10372	317.991346051657	7.416e-005
1	10391	318.268332004516	9.056e-005
1	10399	318.318531026418	6.536e-005
1	10407	318.826803367234	9.56e-005
1	10415	318.849381878176	8.872e-005
1	10423	320.23356983371	8.152e-005
1	10431	320.321186092968	8.264e-005
1	10439	320.33743139286	7.24e-005
1	10447	321.593940907873	9.48e-005
1	10466	323.459327992529	7.928e-005
1	10474	324.370930935177	7.288e-005
1	10504	325.614779910186	8.472e-005
1	10523	326.424707586062	7.184e-005
1	10531	327.023046500741	6.768e-005
1	10539	327.134194965635	7.936e-005
1	10558	327.642672213535	7.496e-005
1	10599	328.305014333687	0.00010216
1	10618	328.603000067921	5.904e-005
1	10626	329.597074315456	8.224e-005
1	10645	330.107822843787	8.672e-005
1	10653	330.132179061249	7.064e-005
1	10672	330.277242231332	8.648e-005
1	10680	330.554498747452	8.04e-005
1	10688	330.863732317698	8.68e-005
1	10696	330.997749616947	8.488e-005
1	10704	331.251980182618	8.728e-005
1	10712	331.35289302467	0.00010008
1	10731	331.471324079975	9.464e-005
1	10739	331.638798488931	8.224e-005
1	10747	332.155900516546	8.408e-005
1	10766	333.296643245393	9.504e-005
1	10774	333.668374251919	6.928e-005
1	10782	334.086153713141	9.672e-005
1	10790	334.317003697915	8.392e-005
1	10798	334.473449779012	8.24e-005
1	10806	334.637559876346	7.128e-005
1	10814	334.70981438653	7.12e-005
1	10822	334.731814387887	6.496e-005
1	10830	334.807877726867	8.416e-005
1	10838	335.077288776236	8.04e-005
1	10846	335.081463001127	6.032e-005
1	10854	336.167991939574	8.096e-005
1	10862	336.398117940783	7.392e-005
1	10870	337.198634901948	8.304e-005
1	10878	337.238487055884	7.608e-005
1	10886	337.31316663096	7.248e-005
1	10894	337.571139798249	9.056e-005
1	10902	337.675119831459	8.328e-005
1	10921	337.926878775909	6.584e-005
1	10929	338.240315781672	8.016e-005
1	10937	338.857987419638	6.808e-005
1	10989	339.335969469142	8.232e-005
1	11008	339.941799171275	9.4e-005
1	11038	340.431590280935	6.952e-005
1	11046	340.852448978174	9.08e-005
1	11065	341.024934098091	9.264e-005
1	11073	341.167234537583	8.904e-005
1	11081	341.743597955411	6.472e-005
1	11089	341.931570100598	7.728e-005
1	11108	342.072708373628	7.12e-005
1	11116	342.424404084851	8.176e-005
1	11124	343.166039614306	7.208e-005
1	11132	343.665399775643	9.056e-005
1	11151	344.818492911496	9.176e-005
1	11159	345.037445598523	6.072e-005
1	11178	345.304833221945	6e-005
1	11186	346.37506615657	8.808e-005
1	11194	346.44213060777	0.0001032
1	11202	346.535553680605	9.872e-005
1	11210	346.825229884998	9.544e-005
1	11218	347.015209282812	5.288e-005
1	11226	347.028705140912	9.4e-005
1	11234	347.875570223782	7.144e-005
1	11242	347.939019782304	6.952e-005
1	11250	347.995499071233	8.064e-005
1	11258	348.018234605631	6.392e-005
1	11266	348.175236567423	7.336e-005
1	11274	348.224339951952	7.328e-005
1	11282	348.427235956713	6.944e-005
1	11290	348.620646686862	6.704e-005
1	11298	348.869003643491	7.072e-005
1	11306	348.966599298528	8.944e-005
1	11336	349.93482670092	8.864e-005
1	11355	351.073808396277	0.00010208
1	11385	351.960666676693	8.952e-005
1	11393	352.813638702765	8.176e-005
1	11412	353.003235986539	7.96e-005
1	11420	353.642961173432	8.808e-005
1	11428	354.073533895576	8.648e-005
1	11436	354.903655842535	8.824e-005
1	11466	355.467316748464	7.632e-005
1	11474	356.524814986982	8.032e-005
1	11482	356.643555706527	8.6e-005
1	11512	357.075582438755	8.824e-005
1	11520	357.398982853759	6.576e-005
1	11539	357.563225554552	0.00010024
1	11547	357.606204581097	6.744e-005
1	11555	357.764026266341	7.8e-005
1	11563	358.013373090971	0.00010752
1	11571	358.316433924529	9.672e-005
1	11579	358.401003203664	7.536e-005
1	11587	358.811386061064	5.872e-005
1	11595	358.816828380941	8.744e-005
1	11603	359.073852339853	7.976e-005
1	11611	359.174112823956	8.2e-005
1	11630	359.493879843514	6.24e-005
1	11649	360.930720833083	5.968e-005
1	11657	361.023212135108	7.192e-005
1	11665	361.119759604996	9.464e-005
1	11695	362.038700157886	8.12e-005
1	11714	362.280292762603	7.384e-005
1	11722	362.767478363798	6.24e-005
1	11730	362.832770251955	9.528e-005
1	11749	363.061651648066	7.128e-005
1	11757	363.385312220191	7.096e-005
1	11776	363.817073856293	5.712e-005
1	11784	363.857959910776	8.376e-005
1	11792	363.872450364709	7.864e-005
1	11800	364.145199626822	6.576e-005
1	11808	364.47708712953	5.552e-005
1	11816	364.643189602631	5.88e-005
1	11824	364.799334475422	9.072e-005
1	11832	365.064119252775	7.68e-005
1	11840	365.137356553518	7.12e-005
1	11848	365.226121939528	7.4e-005
1	11867	365.706727354114	0.00010272
1	11875	365.883708430972	9.608e-005
1	11883	366.105475278327	0.00010032
1	11891	366.181491857185	7.536e-005
1	11899	366.746297115334	7.376e-005
1	11929	367.155552655017	8.288e-005
1	11937	367.522155418059	8.432e-005
1	11945	367.615054884659	8.104e-005
1	11953	367.702861341518	0.00010048
1	11961	367.742560765157	0.00010664
1	11969	368.396608943021	7.352e-005
1	11977	368.587037826731	7.6e-005
1	11985	368.662559294516	7.12e-005
1	11993	368.695611898639	9.584e-005
1	12001	369.140230047311	6.32e-005
1	12009	369.360640840744	8.584e-005
1	12017	369.888829813537	8.392e-005
1	12025	370.017316555381	9.6e-005
1	12033	370.149866207197	8.528e-005
1	12041	370.715645494372	5.848e-005
1	12060	370.924761094546	6.944e-005
1	12068	371.070841658014	7.624e-005
1	12076	371.347622680436	7.728e-005
1	12106	371.883011618878	8.68e-005
1	12114	371.915270332921	6.544e-005
1	12133	373.335784861162	7.872e-005
1	12152	373.95562706643	7.504e-005
1	12182	375.073820938164	6.224e-005
1	12190	375.334100727305	9.696e-005
1	12198	375.415335269265	8.888e-005
1	12206	376.170189160298	0.00010192
1	12214	376.341200738217	8.64e-005
1	12222	376.732906168484	8.168e-005
1	12230	376.941469032708	6.128e-005
1	12249	378.031945628771	8.568e-005
1	12279	378.832485809508	8.12e-005
1	12287	380.054158616394	7.48e-005
1	12295	380.147408383674	7.76e-005
1	12303	380.574227980405	7.768e-005
1	12311	380.657935800477	0.00010368
1	12319	380.779471072336	8.248e-005
1	12327	380.911981230078	8.512e-005
1	12335	381.046736503105	6.752e-005
1	12343	381.071017650275	8.144e-005
1	12362	382.145880076373	9.648e-005
1	12381	382.555404156244	8.256e-005
1	12400	383.041830683223	6.44e-005
1	12419	383.948794199583	6.216e-005
1	12427	383.966358297574	8.456e-005
1	12435	384.675322449002	7.56e-005
1	12443	384.811502622103	9.504e-005
1	12462	385.079230763	9.224e-005
1	12470	385.193948221861	0.0001008
1	12478	385.202861487655	7.104e-005
1	12486	385.780445562085	8.4e-005
1	12494	385.979867726458	7.272e-005
1	12502	386.108362636301	7.296e-005
1	12510	386.181001477132	7.768e-005
1	12518	386.482436084449	7.44e-005
1	12548	386.810788801778	8.504e-005
1	12556	386.882051648057	9.736e-005
1	12564	386.93028434357	6.768e-005
1	12572	387.411840402342	0.00010024
1	12580	387.432413738282	8.624e-005
1	12588	387.571389541918	9.6e-005
1	12596	387.661696044449	7.28e-005
1	12604	387.69418272865	9.152e-005
1	12634	388.915877746672	5.56e-005
1	12653	389.967879022218	9.056e-005
1	12661	390.370647810526	8.872e-005
1	12680	391.594981497406	6.816e-005
1	12688	391.748776441416	8.528e-005
1	12696	392.018305127168	6.112e-005
1	12704	392.223571791462	8.432e-005
1	12712	392.757491543608	7.36e-005
1	12731	392.943755584256	6.544e-005
1	12750	393.97538747044	9.424e-005
1	12758	394.310613107051	8.832e-005
1	12766	394.324399464347	0.00010704
1	12774	394.335055439631	0.00010352
1	12793	394.938059556797	8.056e-005
1	12801	395.183364214573	7.816e-005
1	12809	395.977632522171	8.456e-005
1	12828	396.18961334539	8.368e-005
1	12836	396.409360411872	8.048e-005
1	12844	396.573794881242	9.36e-005
1	12852	397.529314057182	9.864e-005
1	12882	398.920837854961	9.704e-005
1	12890	399.351048846755	8.64e-005
1	12898	399.357005129046	7.64e-005
1	12906	399.804284039482	9.704e-005
1	12914	399.935888997002	9.216e-005
1	12933	400.176791274255	8.096e-005
1	12952	402.108853931197	8.104e-005
1	12960	402.214926994633	8.4e-005
1	12968	402.555828362147	8.176e-005
1	12976	402.587465835496	0.00010472
1	13006	403.606334912206	0.00010088
1	13025	404.302929647584	9.88e-005
1	13044	405.123118126729	8.616e-005
1	13052	405.227451284204	9.768e-005
1	13060	405.306343568859	9.28e-005
1	13068	405.360402273425	6.384e-005
1	13076	405.423327739238	9.16e-005
1	13084	405.757860656011	7.12e-005
1	13103	406.082058938132	8.648e-005
1	13122	406.270289736102	8.888e-005
1	13141	406.519332474363	9.704e-005
1	13149	406.788737832254	0.000102
1	13157	407.036391647767	7.768e-005
1	13176	407.058947749859	9.688e-005
1	13184	407.689406234455	7.768e-005
1	13192	408.12281230352	4.656e-005
1	13200	408.590705623863	7.896e-005
1	13208	408.662004644432	8.84e-005
1	13227	409.177949239775	8.712e-005
1	13235	411.357425232889	0.00011176
1	13243	411.42454530915	8.864e-005
1	13251	411.458868283679	8.64e-005
1	13259	411.935812451656	7.472e-005
1	13267	412.223016813093	0.00011616
1	13275	412.286425188016	7.992e-005
1	13283	412.441754380351	8.928e-005
1	13291	412.708056169214	8.56e-005
1	13321	413.663648051633	7.152e-005
1	13329	413.690171770449	7.424e-005
1	13337	413.865882681022	7.352e-005
1	13345	414.012029479778	6.312e-005
1	13353	414.183400046615	8.216e-005
1	13361	414.276784786855	7.968e-005
1	13369	414.394545652229	0.00010152
1	13377	414.564522491293	8.44e-005
1	13407	415.605294415775	8.408e-005
1	13415	415.847042249197	7.92e-005
1	13423	416.046138375365	7.176e-005
1	13442	416.376979549932	6.928e-005
1	13450	416.509246976971	7.752e-005
1	13458	417.167732121174	0.0001076
1	13488	417.710985002206	8.632e-005
1	13496	417.814316779816	6.576e-005
1	13504	418.097128884967	7.584e-005
1	13523	418.449245818153	7.312e-005
1	13531	418.782551671109	8.176e-005
1	13550	419.075131889202	7.216e-005
1	13558	419.495195743368	6.776e-005
1	13577	420.65425186088	6.704e-005
1	13585	420.974902800239	8.808e-005
1	13593	421.16939764263	9.76e-005
1	13601	421.290960275344	8.24e-005
1	13609	421.626254868475	7.128e-005
1	13617	421.839207108353	8.776e-005
1	13625	421.845172780013	6.992e-005
1	13633	422.001963317104	9.544e-005
1	13641	422.219866452848	7.632e-005
1	13649	422.696811878193	8.504e-005
1	13679	423.161333993277	7.952e-005
1	13687	423.298729291696	7.952e-005
1	13695	423.567514676205	6.712e-005
1	13703	423.986171751619	9.84e-005
1	13722	425.109894249367	7.024e-005
1	13730	425.239199229901	6.56e-005
1	13749	426.021478567271	8.872e-005
1	13779	427.773881671267	7.048e-005
1	13787	427.774232529595	0.000102
1	13795	428.09670560436	0.0001028
1	13814	428.719150455641	6.976e-005
1	13822	429.19844177647	8.432e-005
1	13830	429.373821627661	9.544e-005
1	13849	431.526290092704	7.488e-005
1	13857	431.740169565388	7.104e-005
1	13898	432.703826002038	7.888e-005
1	13906	433.153824064391	9.536e-005
1	13947	433.815351726005	6.736e-005
1	13955	433.979500082612	5.88e-005
1	13963	434.399200758892	8.6e-005
1	13971	434.647119878976	8.304e-005
1	13979	434.708315149064	7.752e-005
1	13987	434.91953674384	7.704e-005
1	13995	434.985945512224	7.256e-005
1	14003	435.026472713374	8.096e-005
1	14011	435.552677789357	7.104e-005
1	14019	435.564716795192	7.52e-005
1	14027	435.824963273671	8.408e-005
1	14057	438.637985368216	8.536e-005
1	14065	438.875541487087	7.6e-005
1	14073	438.902668634116	8.992e-005
1	14081	439.286766341306	7.888e-005
1	14100	439.842768439562	8.792e-005
1	14108	440.258703305751	8.896e-005
1	14116	440.540452308981	8.448e-005
1	14124	440.592889810858	9.36e-005
1	14132	441.815475829553	0.00010536
1	14140	443.525161491951	8.264e-005
1	14181	445.990775334742	8.376e-005
1	14189	446.087144175051	9.472e-005
1	14219	446.299988124041	6.656e-005
1	14227	446.380761412026	8.104e-005
1	14235	446.533077179448	7.096e-005
1	14243	447.081968741414	0.00010256
1	14251	447.291184014566	6.856e-005
1	14259	447.925250905244	8.544e-005
1	14267	447.998452159654	8.92e-005
1	14275	448.056762995077	8.176e-005
1	14283	448.317852230543	9.4e-005
1	14291	448.326860124371	7.696e-005
1	14299	449.180491871114	8.064e-005
1	14307	449.466218264184	8e-005
1	14315	449.886702801191	6.88e-005
1	14323	451.348521493567	8.416e-005
1	14331	452.028455888439	9.96e-005
1	14350	452.402171614268	8.176e-005
1	14358	452.593478011787	0.0001
1	14366	452.677759204503	9.592e-005
1	14385	452.914820488925	9.024e-005
1	14393	453.122151017946	8.616e-005
1	14401	453.293361430094	8.176e-005
1	14420	453.683079398233	7.864e-005
1	14439	453.787504778488	9.08e-005
1	14447	453.839819716968	9.24e-005
1	14455	454.173169665311	9.456e-005
1	14463	454.191943922318	7.56e-005
1	14471	454.222510374905	7.128e-005
1	14501	454.839122484191	9.096e-005
1	14509	455.038771592523	7.72e-005
1	14528	455.266236432324	7.992e-005
1	14558	455.730589837939	7.384e-005
1	14566	455.785723645993	8.624e-005
1	14574	455.840316281408	7.832e-005
1	14582	455.939572978475	6.824e-005
1	14601	457.123368929138	8.336e-005
1	14609	458.206718886545	7.352e-005
1	14628	459.079673445881	8.624e-005
1	14636	459.246548965054	6.76e-005
1	14655	459.724285270648	0.00010608
1	14663	459.78569131942	9.392e-005
1	14671	460.061674360236	7.08e-005
1	14679	460.224220025094	7.888e-005
1	14687	460.680638639437	8.968e-005
1	14695	460.684975026237	9.408e-005
1	14703	460.818382393569	9.384e-005
1	14711	460.819637966306	6.928e-005
1	14719	461.047084658303	8.824e-005
1	14727	461.089480124992	6.984e-005
1	14735	461.092606692081	9.264e-005
1	14743	461.261169111696	8.952e-005
1	14751	461.640791293455	8.176e-005
1	14759	462.120091018752	9.92e-005
1	14767	462.218956214878	7.656e-005
1	14775	462.78427818095	9.48e-005
1	14794	462.939892463356	8.536e-005
1	14802	462.953938708124	0.00010248
1	14821	463.239962716442	9.28e-005
1	14829	463.421248736666	7.984e-005
1	14837	464.066069868484	9.72e-005
1	14845	464.637564905908	9.888e-005
1	14853	464.687839048784	6.024e-005
1	14861	465.624435434652	7.824e-005
1	14869	465.890475129713	9.384e-005
1	14877	466.045989300447	7.064e-005
1	14885	466.108493768254	8.136e-005
1	14926	466.98303064697	0.00010288
1	14934	467.317464860013	7.928e-005
1	14942	467.628265874054	7.128e-005
1	14950	467.67068824631	8.84e-005
1	14958	467.733794844469	8.256e-005
1	14988	468.410093532133	7.136e-005
1	14996	468.488556743829	8.184e-005
1	15004	468.56411520217	7.008e-005
1	15012	468.646897275135	8.144e-005
1	15020	468.696322024451	7.264e-005
1	15039	469.299385808704	7.624e-005
1	15047	469.666144645312	0.00011312
1	15055	469.732744874771	8.8e-005
1	15063	469.782291838141	7.48e-005
1	15071	469.884468411645	6.976e-005
1	15079	469.948755753637	9.344e-005
1	15087	470.290329968673	0.0001088
1	15095	470.367889043503	8.136e-005
1	15103	470.861004756325	7.752e-005
1	15122	471.45277397208	0.00010384
1	15130	471.47973608915	9.896e-005
1	15138	471.624300085666	0.00012
1	15146	471.703641262013	9.336e-005
1	15154	472.044123562717	7.256e-005
1	15162	472.166306116065	7.968e-005
1	15170	472.650457394103	7.304e-005
1	15178	472.812289348029	7.448e-005
1	15186	472.852112780265	7.624e-005
1	15205	473.547555689875	6.968e-005
1	15235	473.851096659824	8.52e-005
1	15243	474.10640083672	7.192e-005
1	15251	474.259574174339	7.72e-005
1	15259	475.142370186953	7.488e-005
1	15289	475.818904224624	6.688e-005
1	15297	476.168701160512	6.4e-005
1	15305	476.487340382091	7.808e-005
1	15313	476.559759579211	9.424e-005
1	15321	476.644017751754	6.736e-005
1	15329	477.133282737069	9.328e-005
1	15337	477.218238733638	9.016e-005
1	15345	477.742819725815	8.536e-005
1	15353	477.925161090997	9.08e-005
1	15372	478.284201979592	8.992e-005
1	15380	478.94924628874	8.144e-005
1	15388	479.156448506429	8.568e-005
1	15407	479.457943682147	9.312e-005
1	15415	479.542782371974	7.256e-005
1	15423	479.596419083346	6.984e-005
1	15431	479.824766770004	6.872e-005
1	15439	480.05017544454	8.352e-005
1	15447	480.197067712483	6.72e-005
1	15455	480.654735969256	8.576e-005
1	15463	480.73197866954	6.752e-005
1	15471	480.873292718654	6.336e-005
1	15490	481.084621241089	8.696e-005
1	15498	481.30484054075	8.128e-005
1	15506	482.250142699873	7.64e-005
1	15514	482.653813476075	7.496e-005
1	15522	482.847646421303	8.68e-005
1	15541	483.260516831202	7.704e-005
1	15560	483.307593251577	8.656e-005
1	15568	483.527356779086	8.48e-005
1	15587	483.974472596095	7.512e-005
1	15595	484.226541378801	7.728e-005
1	15603	484.354592844049	9.96e-005
1	15622	484.847136877263	9.56e-005
1	15652	486.29200638357	5.464e-005
1	15660	486.975537428776	7.816e-005
1	15679	487.808421038531	6e-005
1	15687	488.040868990378	6.688e-005
1	15706	488.151257045211	7.064e-005
1	15725	488.560711991932	8.56e-005
1	15733	488.632214746457	7.584e-005
1	15741	488.822433529924	8.368e-005
1	15760	489.549477371556	7.264e-005
1	15768	489.576727309727	7.616e-005
1	15776	489.600086845885	7.784e-005
1	15784	490.082652621275	9.144e-005
1	15792	490.091187402098	7.376e-005
1	15800	490.334351677301	0.00010088
1	15808	490.719829558202	8.72e-005
1	15816	490.955137018781	9.112e-005
1	15824	491.098758947872	8.752e-005
1	15832	491.66016405272	8.184e-005
1	15840	491.677816507265	6.504e-005
1	15848	491.772585328654	8.952e-005
1	15856	491.796701329088	0.00010936
1	15875	492.881275204084	9.704e-005
1	15883	492.999924584489	0.00011536
1	15891	493.164420125724	9e-005
1	15899	493.174384609552	6.448e-005
1	15907	493.269595486218	9.04e-005
1	15915	493.528178558703	8.896e-005
1	15923	493.539849009449	8.632e-005
1	15931	493.664955332574	8.72e-005
1	15939	493.674428313881	7.544e-005
1	15958	494.397731745768	8.504e-005
1	15966	494.448629222955	8.848e-005
1	15996	495.491923232479	9.904e-005
1	16037	495.788508167456	6.544e-005
1	16045	495.947923772418	8.272e-005
1	16053	497.408765167075	8.984e-005
1	16061	497.666318938706	9.976e-005
1	16069	497.824979897125	8.728e-005
1	16088	498.000171746973	7.208e-005
1	16096	498.26354644962	0.00010472
1	16104	498.423106902718	6.472e-005
1	16123	498.850837607477	8.008e-005
1	16131	499.172037351926	9.2e-005
1	16139	499.712695707975	7.888e-005
1	16147	499.904223325405	7.952e-005
2	65	1.052197276294	1.052197276294
2	92	2.946883450957	1.894686174663
2	119	3.516494341946	0.569610890989
2	202	5.937686061797	2.421191719851
2	218	6.458525535108	0.520839473311
2	237	6.743296067821	0.284770532713
2	326	10.054086581046	3.310790513225
2	334	10.055910775239	0.001824194193
2	432	11.901371617377	1.845460842138
2	448	13.007963187043	1.106591569666
2	542	17.737953584066	4.729990397023
2	598	19.498742731435	1.760789147369
2	606	19.733060057953	0.234317326518
2	698	21.646500718879	1.913440660926
2	714	22.094416964554	0.447916245675
2	733	22.711017865862	0.616600901308
2	798	25.148015232126	2.436997366264
2	825	26.742927058427	1.594911826301
2	922	29.178707493087	2.43578043466
2	954	30.636925963346	1.458218470259
2	1124	36.299072164866	5.66214620152
2	1189	37.707682915465	1.408610750599
2	1205	37.837939966223	0.130257050758
2	1248	38.725640595246	0.887700629023
2	1283	39.658124195756	0.93248360051
2	1318	42.438604820579	2.780480624823
2	1385	44.170093009575	1.731488188996
2	1401	45.533611652936	1.363518643361
2	1428	45.795371478844	0.261759825908
2	1509	47.858789089433	2.063417610589
2	1579	49.447806019583	1.58901693015
2	1595	49.781762576042	0.333956556459
2	1611	50.274815950046	0.493053374004
2	1649	50.688085181732	0.413269231686
2	1716	52.539528210716	1.851443028984
2	1832	57.890170511313	5.350642300597
2	1859	58.558861735911	0.668691224598
2	1940	61.059915886185	2.501054150274
2	1978	62.276643938942	1.216728052757
2	1994	62.832829240703	0.556185301761
2	2018	63.349393090093	0.51656384939
2	2042	64.271895451594	0.922502361501
2	2088	65.954515080867	1.682619629273
2	2112	67.59551389086	1.640998809993
2	2206	70.435033294615	2.839519403755
2	2225	71.6723798909	1.237346596285
2	2271	73.236441836209	1.564061945309
2	2371	75.482325379233	2.245883543024
2	2390	76.891957670742	1.409632291509
2	2457	80.882131832375	3.990174161633
2	2621	86.036011248268	5.153879415893
2	2748	90.59861566899	4.562604420722
2	2756	91.614677867932	1.016062198942
2	2810	92.448937365597	0.834259497665
2	2837	93.711835276773	1.262897911176
2	2896	96.118072443134	2.406237166361
2	2912	96.651693548146	0.533621105012
2	2972	98.175969768686	1.52427622054
2	3211	105.900194482306	7.72422471362
2	3246	106.342555418686	0.44236093638
2	3335	108.994391962677	2.651836543991
2	3343	109.337374927531	0.342982964854
2	3359	109.815655702786	0.478280775255
2	3429	111.954906952107	2.139251249321
2	3469	112.824386255213	0.869479303106
2	3711	119.066248983747	6.241862728534
2	3749	120.639489474695	1.573240490948
2	3776	121.568472618659	0.928983143964
2	3792	121.608269909671	0.039797291012
2	3846	123.058254698607	1.449984788936
2	3886	124.156321639114	1.098066940507
2	4156	133.100074732565	8.943753093451
2	4199	134.353191416895	1.25311668433
2	4274	136.199763000651	1.846571583756
2	4290	137.024566030173	0.824803029522
2	4384	139.288075171507	2.263509141334
2	4408	139.499760414902	0.211685243395
2	4438	140.143251060961	0.643490646059
2	4454	140.243240491845	0.099989430884
2	4470	140.648984611995	0.40574412015
2	4497	141.362948114027	0.713963502032
2	4524	142.471657425438	1.108709311411
2	4705	148.686173320158	6.21451589472
2	4713	148.781973654683	0.095800334525
2	4721	148.806035265904	0.024061611221
2	4740	149.93535109398	1.129315828076
2	4756	150.662917084911	0.727565990931
2	4772	151.328411050887	0.665493965976
2	4877	153.735023941667	2.40661289078
2	4984	156.231083456832	2.496059515165
2	5030	158.808281416195	2.577197959363
2	5049	159.800143067302	0.991861651107
2	5057	160.012746398693	0.212603331391
2	5151	164.031684467251	4.018938068558
2	5181	164.504459639714	0.472775172463
2	5235	166.622142073358	2.117682433644
2	5243	166.64093839286	0.018796319502
2	5289	167.34408896341	0.70315057055
2	5359	170.089074452087	2.744985488677
2	5375	170.984124788173	0.895050336086
2	5415	172.846963110368	1.862838322195
2	5458	174.138646231117	1.291683120749
2	5623	178.538560341224	4.399914110107
2	5631	178.68740922121	0.148848879986
2	5760	181.118482045516	2.431072824306
2	5795	181.892325742444	0.773843696928
2	5827	182.85951820307	0.967192460626
2	5851	183.361296613074	0.501778410004
2	5875	183.732254736052	0.370958122978
2	5926	184.547365897457	0.815111161405
2	5934	184.599578820409	0.052212922952
2	5966	185.453986358663	0.854407538254
2	5990	186.347978718014	0.893992359351
2	6006	186.636294117868	0.288315399854
2	6052	187.646225455514	1.009931337646
2	6087	188.978337331987	1.332111876473
2	6095	189.061286458112	0.082949126125
2	6119	189.2995954413	0.238308983188
2	6227	191.827037500608	2.527442059308
2	6286	193.41949324494	1.592455744332
2	6305	193.531058905557	0.111565660617
2	6340	194.257314639597	0.72625573404
2	6383	196.152431823131	1.895117183534
2	6534	201.268263193596	5.115831370465
2	6647	203.747845791072	2.479582597476
2	6717	205.534920531819	1.787074740747
2	6725	205.542322665033	0.007402133214
2	6741	206.271472205756	0.729149540723
2	6757	206.665792815213	0.394320609457
2	6792	209.855478795165	3.189685979952
2	6835	212.757330375444	2.901851580279
2	6851	213.406909259962	0.649578884518
2	7089	219.728311232656	6.321401972694
2	7113	220.523462867004	0.795151634348
2	7129	220.701111041519	0.177648174515
2	7172	222.198190321212	1.497079279693
2	7236	224.865056535238	2.666866214026
2	7271	226.328364046745	1.463307511507
2	7279	226.526330886065	0.19796683932
2	7295	227.104881134413	0.578550248348
2	7314	228.083708649695	0.978827515282
2	7330	228.152928938275	0.06922028858
2	7398	230.684991100666	2.532062162391
2	7487	233.866431080567	3.181439979901
2	7621	238.150844624196	4.284413543629
2	7637	238.750136404545	0.599291780349
2	7718	241.005759914327	2.255623509782
2	7767	243.354066798113	2.348306883786
2	7840	245.008243977166	1.654177179053
2	7848	245.29092194061	0.282677963444
2	7875	245.659723553256	0.368801612646
2	7899	246.471989998638	0.812266445382
2	7950	248.805361647585	2.333371648947
2	8077	251.746132599899	2.940770952314
2	8117	252.733060933775	0.986928333876
2	8149	253.007887922937	0.274826989162
2	8165	253.822964899808	0.815076976871
2	8197	254.569351377503	0.746386477695
2	8243	256.096026481784	1.526675104281
2	8428	259.939545679826	3.843519198042
2	8493	261.673017878754	1.733472198928
2	8622	265.440279189684	3.76726131093
2	8646	265.836373683308	0.396094493624
2	8754	267.984963398925	2.148589715617
2	8856	270.678045361026	2.693081962101
2	8902	272.376758599965	1.698713238939
2	8929	273.950378944227	1.573620344262
2	8937	274.229260731354	0.278881787127
2	9075	280.148480204352	5.919219472998
2	9129	282.363943907295	2.215463702943
2	9196	285.191361511419	2.827417604124
2	9204	285.345072598067	0.153711086648
2	9220	285.8443009101	0.499228312033
2	9236	286.172367577939	0.328066667839
2	9282	287.005094769408	0.832727191469
2	9290	287.397311887525	0.392217118117
2	9320	287.523211599798	0.125899712273
2	9347	287.967971515499	0.444759915701
2	9355	288.256578535531	0.288607020032
2	9363	288.275608414395	0.019029878864
2	9430	289.967582500966	1.691974086571
2	9449	290.289093172742	0.321510671776
2	9465	290.660065017567	0.370971844825
2	9484	290.971048534228	0.310983516661
2	9508	291.893790090792	0.922741556564
2	9524	292.161313113647	0.267523022855
2	9532	292.322245097958	0.160931984311
2	9556	293.209699099441	0.887454001483
2	9605	295.501056740597	2.291357641156
2	9621	295.69760310633	0.196546365733
2	9629	295.965805387007	0.268202280677
2	9645	296.056895883782	0.091090496775
2	9661	296.227488426185	0.170592542403
2	9685	296.745569551756	0.518081125571
2	9739	298.623326879259	1.877757327503
2	9755	298.706883849089	0.08355696983
2	9839	301.004583693759	2.29769984467
2	9855	301.8923571701	0.887773476341
2	9898	302.665029259305	0.772672089205
2	9906	302.824130934223	0.159101674918
2	9979	305.858224397403	3.03409346318
2	9995	305.942775703979	0.084551306576
2	10073	309.269420238786	3.326644534807
2	10108	310.209842316979	0.940422078193
2	10316	316.224824554792	6.014982237813
2	10324	316.927754247227	0.702929692435
2	10348	317.385625233359	0.457870986132
2	10364	317.901999542211	0.516374308852
2	10372	317.991346051657	0.089346509446
2	10407	318.826803367234	0.835457315577
2	10431	320.321186092968	1.494382725734
2	10466	323.459327992529	3.138141899561
2	10474	324.370930935177	0.911602942648
2	10504	325.614779910186	1.243848975009
2	10626	329.597074315456	3.98229440527
2	10704	331.251980182618	1.654905867162
2	10747	332.155900516546	0.903920333928
2	10766	333.296643245393	1.140742728847
2	10782	334.086153713141	0.789510467748
2	10886	337.31316663096	3.227012917819
2	10989	339.335969469142	2.022802838182
2	11038	340.431590280935	1.095620811793
2	11046	340.852448978174	0.420858697239
2	11132	343.665399775643	2.812950797469
2	11186	346.37506615657	2.709666380927
2	11250	347.995499071233	1.620432914663
2	11512	357.075582438755	9.080083367522
2	11587	358.811386061064	1.735803622309
2	11630	359.493879843514	0.68249378245
2	11695	362.038700157886	2.544820314372
2	11730	362.832770251955	0.794070094069
2	11757	363.385312220191	0.552541968236
2	11816	364.643189602631	1.25787738244
2	11840	365.137356553518	0.494166950887
2	11875	365.883708430972	0.746351877454
2	11891	366.181491857185	0.297783426213
2	11899	366.746297115334	0.564805258149
2	11937	367.522155418059	0.775858302725
2	11945	367.615054884659	0.0928994666
2	11977	368.587037826731	0.971982942072
2	11993	368.695611898639	0.108574071908
2	12133	373.335784861162	4.640172962523
2	12152	373.95562706643	0.619842205268
2	12190	375.334100727305	1.378473660875
2	12279	378.832485809508	3.498385082203
2	12303	380.574227980405	1.741742170897
2	12311	380.657935800477	0.083707820072
2	12335	381.046736503105	0.388800702628
2	12343	381.071017650275	0.02428114717
2	12381	382.555404156244	1.484386505969
2	12400	383.041830683223	0.486426526979
2	12419	383.948794199583	0.90696351636
2	12427	383.966358297574	0.017564097991
2	12435	384.675322449002	0.708964151428
2	12443	384.811502622103	0.136180173101
2	12470	385.193948221861	0.382445599758
2	12478	385.202861487655	0.008913265794
2	12486	385.780445562085	0.57758407443
2	12548	386.810788801778	1.030343239693
2	12580	387.432413738282	0.621624936504
2	12712	392.757491543608	5.325077805326
2	12766	394.324399464347	1.566907920739
2	12774	394.335055439631	0.010655975284
2	12801	395.183364214573	0.848308774942
2	12852	397.529314057182	2.345949842609
2	12890	399.351048846755	1.821734789573
2	12898	399.357005129046	0.005956282291
2	12960	402.214926994633	2.857921865587
2	12968	402.555828362147	0.340901367514
2	13006	403.606334912206	1.050506550059
2	13084	405.757860656011	2.151525743805
2	13200	408.590705623863	2.832844967852
2	13235	411.357425232889	2.766719609026
2	13321	413.663648051633	2.306222818744
2	13353	414.183400046615	0.519751994982
2	13361	414.276784786855	0.09338474024
2	13415	415.847042249197	1.570257462342
2	13531	418.782551671109	2.935509421912
2	13550	419.075131889202	0.292580218093
2	13558	419.495195743368	0.420063854166
2	13617	421.839207108353	2.344011364985
2	13625	421.845172780013	0.00596567166
2	13730	425.239199229901	3.394026449888
2	13947	433.815351726005	8.576152496104
2	13955	433.979500082612	0.164148356607
2	14003	435.026472713374	1.046972630762
2	14140	443.525161491951	8.498688778577
2	14283	448.317852230543	4.792690738592
2	14291	448.326860124371	0.009007893828
2	14439	453.787504778488	5.460644654117
2	14455	454.173169665311	0.385664886823
2	14558	455.730589837939	1.557420172628
2	14601	457.123368929138	1.392779091199
2	14609	458.206718886545	1.083349957407
2	14743	461.261169111696	3.054450225151
2	14829	463.421248736666	2.16007962497
2	14837	464.066069868484	0.644821131818
2	14845	464.637564905908	0.571495037424
2	14885	466.108493768254	1.470928862346
2	15079	469.948755753637	3.840261985383
2	15095	470.367889043503	0.419133289866
2	15154	472.044123562717	1.676234519214
2	15162	472.166306116065	0.122182553348
2	15313	476.559759579211	4.393453463146
2	15407	479.457943682147	2.898184102936
2	15455	480.654735969256	1.196792287109
2	15498	481.30484054075	0.650104571494
2	15587	483.974472596095	2.669632055345
2	15595	484.226541378801	0.252068782706
2	15660	486.975537428776	2.748996049975
2	15687	488.040868990378	1.065331561602
2	15776	489.600086845885	1.559217855507
2	16037	495.788508167456	6.188421321571
2	16123	498.850837607477	3.062329440021
2	16139	499.712695707975	0.861858100498
3	84	2.353786058412	2.353786058412
3	146	4.662600082856	2.308814024444
3	154	4.897515594795	0.234915511939
3	178	5.265675474203	0.368159879408
3	186	5.430740296818	0.165064822615
3	194	5.601223326342	0.170483029524
3	245	7.165682804986	1.564459478644
3	253	7.312019882133	0.146337077147
3	280	8.172059260713	0.86003937858
3	296	8.528162745303	0.35610348459
3	350	10.356633694112	1.828470948809
3	440	12.847530879225	2.490897185113
3	464	13.61810217913	0.770571299905
3	496	15.707318824999	2.089216645869
3	558	18.308909356374	2.601590531375
3	614	19.826923577843	1.518014221469
3	641	20.549767502787	0.722843924944
3	668	21.357365495092	0.807597992305
3	706	22.045076694745	0.687711199653
3	741	23.619593109503	1.574516414758
3	790	24.530047213195	0.910454103692
3	817	26.561697298034	2.031650084839
3	841	27.057094791485	0.495397493451
3	849	27.071710728997	0.014615937512
3	857	27.370934682754	0.299223953757
3	930	29.606420402984	2.23548572023
3	938	30.063801753991	0.457381351007
3	1016	32.538345277762	2.474543523771
3	1043	33.284719630581	0.746374352819
3	1062	33.852299539314	0.567579908733
3	1116	36.126939421163	2.274639881849
3	1197	37.833840569477	1.706901148314
3	1213	38.337234650284	0.503394080807
3	1240	38.629212106836	0.291977456552
3	1264	39.013325958414	0.384113851578
3	1291	39.863210991079	0.849885032665
3	1326	42.648980645249	2.78576965417
3	1345	42.940118343161	0.291137697912
3	1361	43.750983987906	0.810865644745
3	1369	43.998202130559	0.247218142653
3	1377	44.037956517599	0.03975438704
3	1474	46.70480062826	2.666844110661
3	1536	48.388562367474	1.683761739214
3	1563	49.071907129457	0.683344761983
3	1603	50.171535965897	1.09962883644
3	1673	51.050433136866	0.878897170969
3	1681	51.30002428493	0.249591148064
3	1689	51.503353564145	0.203329279215
3	1740	53.542144976645	2.0387914125
3	1802	56.662518595885	3.12037361924
3	1878	58.820024914061	2.157506318176
3	1913	60.493193817822	1.673168903761
3	1932	60.830690605988	0.337496788166
3	1970	61.991999837437	1.161309231449
3	2080	65.846241237717	3.85424140028
3	2104	67.505041240341	1.658800002624
3	2120	68.515553723264	1.010512482923
3	2128	68.737971556619	0.222417833355
3	2144	68.763866982952	0.025895426333
3	2255	72.637526086459	3.873659103507
3	2263	72.878591033346	0.241064946887
[...]
3	10038	307.200588539283	1.274186233713
3	10057	308.545219363408	1.344630824125
3	10092	310.040775337195	1.495555973787
3	10116	310.311165572377	0.270390235182
3	10132	310.435038800325	0.123873227948
3	10172	311.540926854818	1.105888054493
3	10180	312.144815628605	0.603888773787
3	10267	315.224344085355	3.07952845675
3	10275	315.338284598127	0.113940512772
3	10332	317.155932376295	1.817647778168
3	10356	317.689155298003	0.533222921708
3	10539	327.134194965635	9.445039667632
3	10618	328.603000067921	1.468805102286
3	10672	330.277242231332	1.674242163411
3	10680	330.554498747452	0.27725651612
3	10696	330.997749616947	0.443250869495
3	10739	331.638798488931	0.641048871984
3	10774	333.668374251919	2.029575762988
3	10814	334.70981438653	1.041440134611
3	10830	334.807877726867	0.098063340337
3	10862	336.398117940783	1.590240213916
3	10894	337.571139798249	1.173021857466
3	10902	337.675119831459	0.10398003321
3	11073	341.167234537583	3.492114706124
3	11089	341.931570100598	0.764335563015
3	11108	342.072708373628	0.14113827303
3	11116	342.424404084851	0.351695711223
3	11178	345.304833221945	2.880429137094
3	11194	346.44213060777	1.137297385825
3	11234	347.875570223782	1.433439616012
3	11242	347.939019782304	0.063449558522
3	11274	348.224339951952	0.285320169648
3	11306	348.966599298528	0.742259346576
3	11393	352.813638702765	3.847039404237
3	11436	354.903655842535	2.09001713977
3	11466	355.467316748464	0.563660905929
3	11474	356.524814986982	1.057498238518
3	11482	356.643555706527	0.118740719545
3	11579	358.401003203664	1.757447497137
3	11595	358.816828380941	0.415825177277
3	11603	359.073852339853	0.257023958912
3	11611	359.174112823956	0.100260484103
3	11649	360.930720833083	1.756608009127
3	11657	361.023212135108	0.092491302025
3	11776	363.817073856293	2.793861721185
3	11800	364.145199626822	0.328125770529
3	11824	364.799334475422	0.6541348486
3	11883	366.105475278327	1.306140802905
3	11953	367.702861341518	1.597386063191
3	12033	370.149866207197	2.447004865679
3	12041	370.715645494372	0.565779287175
3	12068	371.070841658014	0.355196163642
3	12182	375.073820938164	4.00297928015
3	12230	376.941469032708	1.867648094544
3	12249	378.031945628771	1.090476596063
3	12287	380.054158616394	2.022212987623
3	12319	380.779471072336	0.725312455942
3	12362	382.145880076373	1.366409004037
3	12462	385.079230763	2.933350686627
3	12502	386.108362636301	1.029131873301
3	12510	386.181001477132	0.072638840831
3	12588	387.571389541918	1.390388064786
3	12653	389.967879022218	2.3964894803
3	12688	391.748776441416	1.780897419198
3	12696	392.018305127168	0.269528685752
3	12704	392.223571791462	0.205266664294
3	12731	392.943755584256	0.720183792794
3	12793	394.938059556797	1.994303972541
3	12809	395.977632522171	1.039572965374
3	13044	405.123118126729	9.145485604558
3	13076	405.423327739238	0.300209612509
3	13141	406.519332474363	1.096004735125
3	13291	412.708056169214	6.188723694851
3	13337	413.865882681022	1.157826511808
3	13407	415.605294415775	1.739411734753
3	13423	416.046138375365	0.44084395959
3	13749	426.021478567271	9.975340191906
3	13779	427.773881671267	1.752403103996
3	13787	427.774232529595	0.000350858328
3	13795	428.09670560436	0.322473074765
3	13814	428.719150455641	0.622444851281
3	13822	429.19844177647	0.479291320829
3	14011	435.552677789357	6.354236012887
3	14057	438.637985368216	3.085307578859
3	14073	438.902668634116	0.2646832659
3	14108	440.258703305751	1.356034671635
3	14116	440.540452308981	0.28174900323
3	14124	440.592889810858	0.052437501877
3	14189	446.087144175051	5.494254364193
3	14227	446.380761412026	0.293617236975
3	14235	446.533077179448	0.152315767422
3	14251	447.291184014566	0.758106835118
3	14350	452.402171614268	5.110987599702
3	14358	452.593478011787	0.191306397519
3	14366	452.677759204503	0.084281192716
3	14385	452.914820488925	0.237061284422
3	14566	455.785723645993	2.870903157068
3	14582	455.939572978475	0.153849332482
3	14628	459.079673445881	3.140100467406
3	14671	460.061674360236	0.982000914355
3	14695	460.684975026237	0.623300666001
3	14821	463.239962716442	2.554987690205
3	14869	465.890475129713	2.650512413271
3	14877	466.045989300447	0.155514170734
3	14950	467.67068824631	1.624698945863
3	14958	467.733794844469	0.063106598159
3	14996	468.488556743829	0.75476189936
3	15047	469.666144645312	1.177587901483
3	15063	469.782291838141	0.116147192829
3	15071	469.884468411645	0.102176573504
3	15122	471.45277397208	1.568305560435
3	15130	471.47973608915	0.02696211707
3	15146	471.703641262013	0.223905172863
3	15235	473.851096659824	2.147455397811
3	15337	477.218238733638	3.367142073814
3	15345	477.742819725815	0.524580992177
3	15380	478.94924628874	1.206426562925
3	15415	479.542782371974	0.593536083234
3	15431	479.824766770004	0.28198439803
3	15463	480.73197866954	0.907211899536
3	15471	480.873292718654	0.141314049114
3	15490	481.084621241089	0.211328522435
3	15522	482.847646421303	1.763025180214
3	15603	484.354592844049	1.506946422746
3	15622	484.847136877263	0.492544033214
3	15725	488.560711991932	3.713575114669
3	15784	490.082652621275	1.521940629343
3	15848	491.772585328654	1.689932707379
3	15891	493.164420125724	1.39183479707
3	15899	493.174384609552	0.009964483828
3	15923	493.539849009449	0.365464399897
3	15939	493.674428313881	0.134579304432
3	15958	494.397731745768	0.723303431887
3	15966	494.448629222955	0.050897477187
3	16069	497.824979897125	3.37635067417
4	342	10.071460502962	10.071460502962
4	380	11.115525242705	1.044064739743
4	456	13.133643000746	2.018117758041
4	472	14.803886549333	1.670243548587
4	480	15.001329521604	0.197442972271
4	504	16.075363153864	1.07403363226
4	512	16.623377516466	0.548014362602
4	574	18.615687322552	1.992309806086
4	633	20.251149911326	1.635462588774
4	833	26.897273647906	6.64612373658
4	895	28.180722389848	1.283448741942
4	970	31.271566747294	3.090844357446
4	1070	34.002631442625	2.731064695331
4	1181	37.589057651716	3.586426209091
4	1232	38.618771513549	1.029713861833
4	1299	40.234649862779	1.61587834923
4	1393	44.188022485487	3.953372622708
4	1409	45.660407893883	1.472385408396
4	1458	46.455687289051	0.795279395168
4	1466	46.607352891471	0.15166560242
4	1493	46.915731042133	0.308378150662
4	1571	49.175121423949	2.259390381816
4	1775	55.15685315647	5.981731732521
4	1783	55.507786928014	0.350933771544
4	1894	59.48289106483	3.975104136816
4	1986	62.509698422629	3.026807357799
4	2010	63.192989247622	0.683290824993
4	2034	64.071999053518	0.879009805896
4	2096	67.189618123044	3.117619069526
4	2152	68.804701864298	1.615083741254
4	2328	75.142248991992	6.337547127694
4	2449	80.58906217521	5.446813183218
4	2505	82.062858364647	1.473796189437
4	2578	85.465464945677	3.40260658103
4	2597	85.672005601569	0.206540655892
4	2605	85.711091884789	0.03908628322
4	2613	85.877073873675	0.165981988886
4	2629	86.113971277473	0.236897403798
4	2716	89.894213125219	3.780241847746
4	2724	89.950243523486	0.056030398267
4	2732	90.07040667515	0.120163151664
4	2740	90.382430576013	0.312023900863
4	2775	91.691822289775	1.309391713762
4	2783	91.878955222234	0.187132932459
4	2791	91.956650833219	0.077695610985
4	2861	95.067940811874	3.111289978655
4	2904	96.577237744664	1.50929693279
4	2999	99.117956651103	2.540718906439
4	3026	99.689035624758	0.571078973655
4	3034	100.899736326272	1.210700701514
4	3042	100.976546487238	0.076810160966
4	3085	102.18879373414	1.212247246902
4	3144	103.910314600029	1.721520865889
4	3152	104.489949505309	0.57963490528
4	3281	107.700689794216	3.210740288907
4	3289	107.971668146424	0.270978352208
4	3297	107.982004705537	0.010336559113
4	3305	108.313555040337	0.3315503348
4	3351	109.618605866171	1.305050825834
4	3367	109.931725911307	0.313120045136
4	3375	110.489315806798	0.557589895491
4	3437	112.340711996533	1.851396189735
4	3453	112.707623893309	0.366911896776
4	3488	113.027714320151	0.320090426842
4	3496	113.265706765845	0.237992445694
4	3520	113.709564733475	0.44385796763
4	3544	113.886540959045	0.17697622557
4	3552	114.052598596879	0.166057637834
4	3587	114.630962765979	0.5783641691
4	3606	114.743842732007	0.112879966028
4	3647	115.144462045285	0.400619313278
4	3663	115.469643382162	0.325181336877
4	3687	117.820004772369	2.350361390207
4	3695	118.789195582528	0.969190810159
4	3819	122.61683004741	3.827634464882
4	3838	122.805425596338	0.188595548928
4	3870	123.933979425332	1.128553828994
4	3902	124.309915082403	0.375935657071
4	3937	124.925945447409	0.616030365006
4	3945	125.662087187806	0.736141740397
4	4002	127.582960132104	1.920872944298
4	4018	128.207457692117	0.624497560013
4	4061	130.148323594856	1.940865902739
4	4121	132.193619463272	2.045295868416
4	4137	132.737150078263	0.543530614991
4	4164	133.332822547515	0.595672469252
4	4242	135.932086373301	2.599263825786
4	4266	136.117978065236	0.185891691935
4	4282	136.44093028578	0.322952220544
4	4392	139.369457833523	2.928527547743
4	4400	139.422393277723	0.0529354442
4	4462	140.495767799445	1.073374521722
4	4578	144.70681009055	4.211042291105
4	4597	144.947105251961	0.240295161411
4	4605	145.144073516443	0.196968264482
4	4632	146.180862184104	1.036788667661
4	4659	146.436560252064	0.25569806796
4	4667	147.408672726561	0.972112474497
4	4748	150.072070525865	2.663397799304
4	4764	150.97598321205	0.903912686185
4	4807	151.932075320644	0.956092108594
4	4823	152.225773103157	0.293697782513
4	4839	152.633867798114	0.408094694957
4	4858	153.456211245108	0.822343446994
4	4901	154.657602919345	1.201391674237
4	5308	167.879750152865	13.22214723352
4	5343	169.748072825573	1.868322672708
4	5399	172.240186168195	2.492113342622
4	5407	172.653595399384	0.413409231189
4	5450	173.768071022382	1.114475622998
4	5501	176.175005144457	2.406934122075
4	5520	176.982399042854	0.807393898397
4	5547	177.226837179632	0.244438136778
4	5566	177.601596957878	0.374759778246
4	5615	178.509539388944	0.907942431066
4	5666	178.905188847454	0.39564945851
4	5701	179.616588864086	0.711400016632
4	5728	180.01830126892	0.401712404834
4	5744	180.521919926768	0.503618657848
4	5843	183.259736955141	2.737817028373
4	5918	184.387357797478	1.127620842337
4	6103	189.083675427398	4.69631762992
4	6127	189.309350820255	0.225675392857
4	6151	190.170901814584	0.861550994329
4	6243	191.988205820443	1.817304005859
4	6262	192.234531761938	0.246325941495
4	6278	192.952542853781	0.718011091843
4	6332	193.885417464013	0.932874610232
4	6359	195.766324612609	1.880907148596
4	6375	195.858955783847	0.092631171238
4	6434	198.082827287908	2.223871504061
4	6493	199.804338311003	1.721511023095
4	6550	201.372819806314	1.568481495311
4	6558	201.722762152601	0.349942346287
4	6596	202.635297367895	0.912535215294
4	6682	204.134825024819	1.499527656924
4	6701	204.641475159809	0.50665013499
4	6709	204.835878553212	0.194403393403
4	6749	206.642601791491	1.806723238279
4	6765	207.984959935081	1.34235814359
4	6784	208.969060247977	0.984100312896
4	6819	211.921490438888	2.952430190911
4	6843	212.811795496043	0.890305057155
4	6859	213.678557894866	0.866762398823
4	7000	218.139305352657	4.460747457791
4	7035	218.892366917414	0.753061564757
4	7081	219.494518459118	0.602151541704
4	7164	222.183570564022	2.689052104904
4	7196	223.890348304436	1.706777740414
4	7204	223.927338683665	0.036990379229
4	7220	224.603192432789	0.675853749124
4	7360	229.473762723968	4.870570291179
4	7479	233.467436455374	3.993673731406
4	7573	236.074663739481	2.607227284107
4	7581	236.264170402323	0.189506662842
4	7589	236.978465124721	0.714294722398
4	7613	237.830866133746	0.852401009025
4	7656	239.33654902202	1.505682888274
4	7675	239.651338491753	0.314789469733
4	7710	240.95740367419	1.306065182437
4	7786	244.205358345282	3.247954671092
4	7832	244.701819200757	0.496460855475
4	7867	245.617625826214	0.915806625457
4	7891	245.78472208879	0.167096262576
4	7923	247.769167799728	1.984445710938
4	7958	248.881345660428	1.1121778607
4	7966	249.055308373238	0.17396271281
4	7974	249.234404505552	0.179096132314
4	7982	249.414473673407	0.180069167855
4	8012	250.24663203046	0.832158357053
4	8031	250.651304100679	0.404672070219
4	8050	251.340216595663	0.688912494984
4	8058	251.546839506955	0.206622911292
4	8157	253.283396702547	1.736557195592
4	8262	256.225320490878	2.941923788331
4	8281	256.752494105065	0.527173614187
4	8297	256.893927554343	0.141433449278
4	8321	257.248531817023	0.35460426268
4	8329	257.266712241549	0.018180424526
4	8356	257.543131345225	0.276419103676
4	8380	258.751255279985	1.20812393476
4	8388	258.792955142593	0.041699862608
4	8396	258.835587290274	0.042632147681
4	8404	259.589297370575	0.753710080301
4	8412	259.672848997067	0.083551626492
4	8420	259.694346355352	0.021497358285
4	8436	260.274042042518	0.579695687166
4	8528	262.232335756061	1.958293713543
4	8606	264.447099394723	2.214763638662
4	8638	265.732331005063	1.28523161034
4	8654	266.06330116034	0.330970155277
4	8673	266.760255316852	0.696954156512
4	8762	268.151727390757	1.391472073905
4	8797	268.724129822186	0.572402431429
4	8894	271.997119801184	3.272989978998
4	9010	277.588582682733	5.591462881549
4	9056	280.058496560098	2.469913877365
4	9083	280.918833384141	0.860336824043
4	9102	281.966771916838	1.047938532697
4	9137	282.390498354888	0.42372643805
4	9153	282.556402272468	0.16590391758
4	9161	282.67984159504	0.123439322572
4	9228	285.957763499867	3.277921904827
4	9339	287.742420077893	1.784656578026
4	9371	288.485903758375	0.743483680482
4	9379	288.515202233593	0.029298475218
4	9395	289.101909936729	0.586707703136
4	9457	290.626144951966	1.524235015237
4	9516	292.106553917919	1.480408965953
4	9540	292.662986784821	0.556432866902
4	9637	295.987402016403	3.324415231582
4	9653	296.175800710483	0.18839869408
4	9677	296.513109156902	0.337308446419
4	9712	297.826010069986	1.312900913084
4	9763	298.821355120166	0.99534505018
4	9804	299.977818911546	1.15646379138
4	9820	300.825834560771	0.848015649225
4	9847	301.854247982214	1.028413421443
4	9863	302.089936201883	0.235688219669
4	9936	303.188863675292	1.098927473409
4	9963	305.425102728683	2.236239053391
4	10100	310.049987882762	4.624885154079
4	10164	310.882158453933	0.832170571171
4	10251	314.814641097362	3.932482643429
4	10391	318.268332004516	3.453690907154
4	10423	320.23356983371	1.965237829194
4	10439	320.33743139286	0.10386155915
4	10558	327.642672213535	7.305240820675
4	10599	328.305014333687	0.662342120152
4	10645	330.107822843787	1.8028085101
4	10653	330.132179061249	0.024356217462
4	10688	330.863732317698	0.731553256449
4	10731	331.471324079975	0.607591762277
4	10790	334.317003697915	2.84567961794
4	10806	334.637559876346	0.320556178431
4	10846	335.081463001127	0.443903124781
4	10854	336.167991939574	1.086528938447
4	10929	338.240315781672	2.072323842098
4	10937	338.857987419638	0.617671637966
4	11065	341.024934098091	2.166946678453
4	11081	341.743597955411	0.71866385732
4	11124	343.166039614306	1.422441658895
4	11159	345.037445598523	1.871405984217
4	11202	346.535553680605	1.498108082082
4	11210	346.825229884998	0.289676204393
4	11226	347.028705140912	0.203475255914
4	11290	348.620646686862	1.59194154595
4	11336	349.93482670092	1.314180014058
4	11355	351.073808396277	1.138981695357
4	11412	353.003235986539	1.929427590262
4	11420	353.642961173432	0.639725186893
4	11428	354.073533895576	0.430572722144
4	11520	357.398982853759	3.325448958183
4	11547	357.606204581097	0.207221727338
4	11555	357.764026266341	0.157821685244
4	11571	358.316433924529	0.552407658188
4	11665	361.119759604996	2.803325680467
4	11722	362.767478363798	1.647718758802
4	11749	363.061651648066	0.294173284268
4	11784	363.857959910776	0.79630826271
4	11808	364.47708712953	0.619127218754
4	11832	365.064119252775	0.587032123245
4	11867	365.706727354114	0.642608101339
4	11961	367.742560765157	2.035833411043
4	11969	368.396608943021	0.654048177864
4	11985	368.662559294516	0.265950351495
4	12017	369.888829813537	1.226270519021
4	12060	370.924761094546	1.035931281009
4	12076	371.347622680436	0.42286158589
4	12106	371.883011618878	0.535388938442
4	12114	371.915270332921	0.032258714043
4	12198	375.415335269265	3.500064936344
4	12222	376.732906168484	1.317570899219
4	12295	380.147408383674	3.41450221519
4	12327	380.911981230078	0.764572846404
4	12494	385.979867726458	5.06788649638
4	12518	386.482436084449	0.502568357991
4	12556	386.882051648057	0.399615563608
4	12564	386.93028434357	0.048232695513
4	12572	387.411840402342	0.481556058772
4	12596	387.661696044449	0.249855642107
4	12634	388.915877746672	1.254181702223
4	12661	390.370647810526	1.454770063854
4	12680	391.594981497406	1.22433368688
4	12750	393.97538747044	2.380405973034
4	12758	394.310613107051	0.335225636611
4	12836	396.409360411872	2.098747304821
4	12844	396.573794881242	0.16443446937
4	12882	398.920837854961	2.347042973719
4	12976	402.587465835496	3.666627980535
4	13025	404.302929647584	1.715463812088
4	13060	405.306343568859	1.003413921275
4	13068	405.360402273425	0.054058704566
4	13176	407.058947749859	1.698545476434
4	13184	407.689406234455	0.630458484596
4	13208	408.662004644432	0.972598409977
4	13243	411.42454530915	2.762540664718
4	13275	412.286425188016	0.861879878866
4	13283	412.441754380351	0.155329192335
4	13369	414.394545652229	1.952791271878
4	13458	417.167732121174	2.773186468945
4	13496	417.814316779816	0.646584658642
4	13523	418.449245818153	0.634929038337
4	13577	420.65425186088	2.205006042727
4	13633	422.001963317104	1.347711456224
4	13649	422.696811878193	0.694848561089
4	13695	423.567514676205	0.870702798012
4	13722	425.109894249367	1.542379573162
4	13830	429.373821627661	4.263927378294
4	13906	433.153824064391	3.78000243673
4	14027	435.824963273671	2.67113920928
4	14065	438.875541487087	3.050578213416
4	14081	439.286766341306	0.411224854219
4	14132	441.815475829553	2.528709488247
4	14259	447.925250905244	6.109775075691
4	14299	449.180491871114	1.25524096587
4	14315	449.886702801191	0.706210930077
4	14323	451.348521493567	1.461818692376
4	14331	452.028455888439	0.679934394872
4	14393	453.122151017946	1.093695129507
4	14471	454.222510374905	1.100359356959
4	14509	455.038771592523	0.816261217618
4	14528	455.266236432324	0.227464839801
4	14636	459.246548965054	3.98031253273
4	14679	460.224220025094	0.97767106004
4	14687	460.680638639437	0.456418614343
4	14703	460.818382393569	0.137743754132
4	14711	460.819637966306	0.001255572737
4	14719	461.047084658303	0.227446691997
4	14751	461.640791293455	0.593706635152
4	14767	462.218956214878	0.578164921423
4	14775	462.78427818095	0.565321966072
4	14794	462.939892463356	0.155614282406
4	14853	464.687839048784	1.747946585428
4	14861	465.624435434652	0.936596385868
4	14926	466.98303064697	1.358595212318
4	14934	467.317464860013	0.334434213043
4	14942	467.628265874054	0.310801014041
4	15055	469.732744874771	2.104479000717
4	15251	474.259574174339	4.526829299568
4	15259	475.142370186953	0.882796012614
4	15297	476.168701160512	1.026330973559
4	15305	476.487340382091	0.318639221579
4	15321	476.644017751754	0.156677369663
4	15353	477.925161090997	1.281143339243
4	15506	482.250142699873	4.324981608876
4	15514	482.653813476075	0.403670776202
4	15541	483.260516831202	0.606703355127
4	15706	488.151257045211	4.890740214009
4	15733	488.632214746457	0.480957701246
4	15768	489.576727309727	0.94451256327
4	15792	490.091187402098	0.514460092371
4	15800	490.334351677301	0.243164275203
4	15808	490.719829558202	0.385477880901
4	15816	490.955137018781	0.235307460579
4	15875	492.881275204084	1.926138185303
4	15883	492.999924584489	0.118649380405
4	15996	495.491923232479	2.49199864799
4	16045	495.947923772418	0.456000539939
4	16053	497.408765167075	1.460841394657
4	16096	498.26354644962	0.854781282545
4	16147	499.904223325405	1.640676875785

