version 2
run General-0-20220514-10:32:40-5236
attr configname General
attr datetime 20220514-10:32:40
attr experiment General
attr inifile omnetpp.ini
attr iterationvars $0=0.1
attr iterationvarsf 0.1-
attr measurement $0=0.1
attr network Lab2
attr processid 5236
attr repetition 0
attr replication #0
attr resultdir results
attr runnumber 0
attr seedset 0
param **.sim_time 500s
param **.next_event_par 1.0/(0.1)
param **.pck_len_mean 1000
param **.pck_len_stddev 150
param **.pck_len_min 26
param **.pck_len_max 1480
param **.num_of_hosts 4
param **.host1.ipAddr.IP_addr 0
param **.host2.ipAddr.IP_addr 1
param **.host3.ipAddr.IP_addr 2
param **.host4.ipAddr.IP_addr 3
param **.arp_ttl 10s
param **.host1.eth.MAC_addr 0
param **.host2.eth.MAC_addr 1
param **.host3.eth.MAC_addr 2
param **.host4.eth.MAC_addr 3
param **.aging_time 1s

vector 0 Lab2.host1.eth interval:vector ETV
attr interpolationmode none
attr source interval
attr title "interval, vector"
vector 1 Lab2 delay:vector ETV
attr interpolationmode none
attr source delay
attr title "delay, vector"
vector 2 Lab2.host2.eth interval:vector ETV
attr interpolationmode none
attr source interval
attr title "interval, vector"
vector 3 Lab2.host3.eth interval:vector ETV
attr interpolationmode none
attr source interval
attr title "interval, vector"
vector 4 Lab2.host4.eth interval:vector ETV
attr interpolationmode none
attr source interval
attr title "interval, vector"
0	57	5.510604866703	5.510604866703
0	334	78.260144890689	72.749540023986
0	446	116.344314685777	38.084169795088
0	465	117.757581501385	1.413266815608
0	495	124.591294525572	6.833713024187
0	840	204.363813810429	79.772519284857
0	848	204.933958404004	0.570144593575
0	1094	272.958348734525	68.024390330521
0	1378	324.737889691646	51.779540957121
0	1386	326.843256653687	2.105366962041
0	1394	329.383365477189	2.540108823502
0	1903	446.075844280492	116.6924788033
0	1911	452.130142576894	6.054298296402
0	1963	462.091522899073	9.961380322179
0	2081	493.840622385527	31.749099486454
1	57	5.510604866703	6e-005
1	219	51.123675586654	9.664e-005
1	249	59.646918534031	7.08e-005
1	334	78.260144890689	8.92e-005
1	386	90.567970747358	9.128e-005
1	394	91.84850384047	7.4e-005
1	446	116.344314685777	9.136e-005
1	465	117.757581501385	7.12e-005
1	495	124.591294525572	7.688e-005
1	613	169.740734447191	7.136e-005
1	698	187.402779603729	6.384e-005
1	739	195.308022532003	8.984e-005
1	747	196.62985994815	9e-005
1	821	202.488587338402	8.904e-005
1	840	204.363813810429	0.00010752
1	848	204.933958404004	9.744e-005
1	922	225.688545330583	5.544e-005
1	952	231.237527580065	6.88e-005
1	971	234.97428072401	9.64e-005
1	990	242.954465056006	6.992e-005
1	1009	248.099318962527	9.632e-005
1	1094	272.958348734525	8.096e-005
1	1146	280.625755455701	8.112e-005
1	1154	280.81901168985	7.912e-005
1	1173	282.235453637802	8.992e-005
1	1225	287.789933880036	6.48e-005
1	1244	289.646352615999	8.664e-005
1	1263	291.012110526864	7.472e-005
1	1337	313.767803897133	0.00010216
1	1378	324.737889691646	7.496e-005
1	1386	326.843256653687	9.2e-005
1	1394	329.383365477189	8.952e-005
1	1435	338.451098090396	8.936e-005
1	1553	358.972494799613	7.224e-005
1	1572	360.632434974534	7.576e-005
1	1580	362.946664214086	8.552e-005
1	1599	373.228582549351	8.136e-005
1	1640	380.542730777795	6.928e-005
1	1692	396.868969643064	8.88e-005
1	1799	423.575412638249	8.672e-005
1	1840	430.800968078803	8.552e-005
1	1903	446.075844280492	0.00010184
1	1911	452.130142576894	8.208e-005
1	1963	462.091522899073	8.744e-005
1	2081	493.840622385527	8.128e-005
2	219	51.123675586654	51.123675586654
2	249	59.646918534031	8.523242947377
2	922	225.688545330583	166.04162679655
2	971	234.97428072401	9.285735393427
2	990	242.954465056006	7.980184331996
2	1146	280.625755455701	37.671290399695
2	1337	313.767803897133	33.142048441432
2	1553	358.972494799613	45.20469090248
2	1692	396.868969643064	37.896474843451
2	1840	430.800968078803	33.931998435739
3	386	90.567970747358	90.567970747358
3	394	91.84850384047	1.280533093112
3	952	231.237527580065	139.38902373959
3	1009	248.099318962527	16.861791382462
3	1154	280.81901168985	32.719692727323
3	1173	282.235453637802	1.416441947952
3	1244	289.646352615999	7.410898978197
3	1263	291.012110526864	1.365757910865
4	613	169.740734447191	169.74073444719
4	698	187.402779603729	17.662045156538
4	739	195.308022532003	7.905242928274
4	747	196.62985994815	1.321837416147
4	821	202.488587338402	5.858727390252
4	1225	287.789933880036	85.301346541634
4	1435	338.451098090396	50.66116421036
4	1572	360.632434974534	22.181336884138
4	1580	362.946664214086	2.314229239552
4	1599	373.228582549351	10.281918335265
4	1640	380.542730777795	7.314148228444
4	1799	423.575412638249	43.032681860454

