version 2
run General-3-20220514-10:33:13-21292
attr configname General
attr datetime 20220514-10:33:13
attr experiment General
attr inifile omnetpp.ini
attr iterationvars $0=0.4
attr iterationvarsf 0.4-
attr measurement $0=0.4
attr network Lab2
attr processid 21292
attr repetition 0
attr replication #0
attr resultdir results
attr runnumber 3
attr seedset 3
param **.sim_time 500s
param **.next_event_par 1.0/(0.4)
param **.pck_len_mean 1000
param **.pck_len_stddev 150
param **.pck_len_min 26
param **.pck_len_max 1480
param **.num_of_hosts 4
param **.host1.ipAddr.IP_addr 0
param **.host2.ipAddr.IP_addr 1
param **.host3.ipAddr.IP_addr 2
param **.host4.ipAddr.IP_addr 3
param **.arp_ttl 10s
param **.host1.eth.MAC_addr 0
param **.host2.eth.MAC_addr 1
param **.host3.eth.MAC_addr 2
param **.host4.eth.MAC_addr 3
param **.aging_time 1s

vector 0 Lab2.host3.eth interval:vector ETV
attr interpolationmode none
attr source interval
attr title "interval, vector"
vector 1 Lab2 delay:vector ETV
attr interpolationmode none
attr source delay
attr title "delay, vector"
vector 2 Lab2.host2.eth interval:vector ETV
attr interpolationmode none
attr source interval
attr title "interval, vector"
vector 3 Lab2.host1.eth interval:vector ETV
attr interpolationmode none
attr source interval
attr title "interval, vector"
vector 4 Lab2.host4.eth interval:vector ETV
attr interpolationmode none
attr source interval
attr title "interval, vector"
0	57	0.123281714707	0.123281714707
0	65	0.323512013727	0.20023029902
0	141	4.594577009772	4.271064996045
0	173	6.960017783351	2.365440773579
0	241	11.591829289942	4.631811506591
0	395	18.774219009469	7.182389719527
0	414	22.226862010464	3.452643000995
0	452	25.451590990119	3.224728979655
0	550	30.207657193773	4.756066203654
0	734	48.153636559183	17.94597936541
0	843	55.036743370615	6.883106811432
0	946	61.233320967705	6.19657759709
0	954	62.522632694212	1.289311726507
0	989	65.406277434	2.883644739788
0	997	67.67836321256	2.27208577856
0	1016	68.347880334051	0.669517121491
0	1117	76.512121238029	8.164240903978
0	1136	79.849731157502	3.337609919473
0	1144	80.490180416088	0.640449258586
0	1324	96.53408801916	16.043907603072
0	1343	98.571629632244	2.037541613084
0	1381	102.11775821398	3.546128581736
0	1446	105.475231203444	3.357472989464
0	1492	108.54709203446	3.071860831016
0	1500	108.663675500189	0.116583465729
0	1516	108.904327159608	0.240651659419
0	1606	120.236649002732	11.332321843124
0	1657	124.298274151588	4.061625148856
0	1747	129.548304236105	5.250030084517
0	1774	132.176772764145	2.62846852804
0	1812	133.477165006281	1.300392242136
0	1820	133.578599670327	0.101434664046
0	1874	135.362955190494	1.784355520167
0	1882	136.017656682102	0.654701491608
0	1914	141.059744435065	5.042087752963
0	2034	154.292680479718	13.232936044653
0	2042	154.385744217884	0.093063738166
0	2050	155.005566887768	0.619822669884
0	2088	156.688197382853	1.682630495085
0	2112	158.074289510219	1.386092127366
0	2142	159.953863772543	1.879574262324
0	2269	168.587142450916	8.633278678373
0	2285	168.906553136492	0.319410685576
0	2293	169.463182136045	0.556628999553
0	2374	177.786288424312	8.323106288267
0	2437	181.23855669778	3.452268273468
0	2526	184.341171121841	3.102614424061
0	2561	185.03373032327	0.692559201429
0	2588	185.71266920177	0.6789388785
0	2623	188.322468166546	2.609798964776
0	2661	191.128966239423	2.806498072877
0	2772	195.958873101872	4.829906862449
0	2780	196.174985077417	0.216111975545
0	2869	201.094687503962	4.919702426545
0	2934	206.046705071882	4.95201756792
0	2942	207.095546595784	1.048841523902
0	3208	226.99040098543	19.894854389646
0	3227	227.569126887411	0.578725901981
0	3235	227.683313782643	0.114186895232
0	3254	228.061988553124	0.378674770481
0	3281	230.376660648832	2.314672095708
0	3297	231.212660141154	0.835999492322
0	3525	248.480610890164	17.26795074901
0	3533	249.25547960116	0.774868710996
0	3593	253.71494255761	4.45946295645
0	3612	255.515602365868	1.800659808258
0	3650	258.198929912338	2.68332754647
0	3674	259.400210767847	1.201280855509
0	3693	259.540485764532	0.140274996685
0	3742	264.877022571603	5.336536807071
0	3856	276.746404835352	11.869382263749
0	3875	279.821672124964	3.075267289612
0	4011	288.292052142133	8.470380017169
0	4046	291.064560560161	2.772508418028
0	4284	306.060641703544	14.996081143383
0	4314	306.476059649003	0.415417945459
0	4322	306.885994174076	0.409934525073
0	4449	314.427040224364	7.541046050288
0	4506	317.511881962709	3.084841738345
0	4533	318.791850780779	1.27996881807
0	4541	319.511202211212	0.719351430433
0	4617	323.245824338618	3.734622127406
0	4625	323.306704850261	0.060880511643
0	4633	323.498178894729	0.191474044468
0	4795	335.664428341544	12.166249446815
0	4950	344.919343329456	9.254914987912
0	5001	347.129743417836	2.21040008838
0	5052	351.198417633298	4.068674215462
0	5060	351.225363439173	0.026945805875
0	5155	355.360283784924	4.134920345751
0	5182	356.313863112468	0.953579327544
0	5410	373.569923590536	17.256060478068
0	5543	381.663424987276	8.09350139674
0	5570	382.57470630667	0.911281319394
0	5637	386.352392819395	3.777686512725
0	5737	393.119490316062	6.767097496667
0	5775	397.260439746049	4.140949429987
0	5927	408.421408981087	11.160969235038
0	6030	414.315143301571	5.893734320484
0	6038	414.936335452991	0.62119215142
0	6106	418.010712204001	3.07437675101
0	6114	418.086839254156	0.076127050155
0	6181	424.338185424071	6.251346169915
0	6363	435.582762300106	11.244576876035
0	6371	435.717597088955	0.134834788849
0	6491	446.340295938122	10.622698849167
0	6553	450.587081301493	4.246785363371
0	6580	452.082468626364	1.495387324871
0	6626	453.400937665575	1.318469039211
0	6645	453.864498071244	0.463560405669
0	6715	457.100837898116	3.236339826872
0	6967	472.926873735077	15.826035836961
0	7016	478.007877761914	5.081004026837
0	7149	485.495366170786	7.487488408872
0	7157	485.697677835812	0.202311665026
0	7330	496.38172985088	10.684052015068
1	57	0.123281714707	6.888e-005
1	65	0.323512013727	7.568e-005
1	73	2.741783372616	9.528e-005
1	114	3.552666222063	7.48e-005
1	122	3.912461804421	8.104e-005
1	141	4.594577009772	7.336e-005
1	149	5.519379113493	7.28e-005
1	157	5.586226075649	7.448e-005
1	165	6.90153831712	6.936e-005
1	173	6.960017783351	7.288e-005
1	181	9.028270580657	7.912e-005
1	200	10.422921944673	7.648e-005
1	241	11.591829289942	7.312e-005
1	260	12.716706860812	7.344e-005
1	268	13.667221082527	6.376e-005
1	320	15.171653353846	8.584e-005
1	328	15.219532944491	8.464e-005
1	347	15.344900217577	6.264e-005
1	355	15.653805882887	8.64e-005
1	363	15.703657840694	7.192e-005
1	371	17.333419184362	7.32e-005
1	379	18.19565273924	5.696e-005
1	387	18.392522952291	8.12e-005
1	395	18.774219009469	0.00010344
1	414	22.226862010464	8.656e-005
1	433	23.192402432825	0.00011136
1	452	25.451590990119	8.816e-005
1	482	26.825053503952	7.792e-005
1	512	27.502232157677	8.04e-005
1	531	27.856279543925	7.768e-005
1	550	30.207657193773	9.464e-005
1	558	30.554850739659	0.00010456
1	566	31.170851914258	9.328e-005
1	574	32.071542067848	7.912e-005
1	593	32.500524845706	9.16e-005
1	601	35.470870220692	7.648e-005
1	620	35.696236921792	8.712e-005
1	639	38.003498715324	7.576e-005
1	658	40.134344360955	7.448e-005
1	666	40.62497365038	5.872e-005
1	685	41.770994768868	7.424e-005
1	693	42.022070599142	7.736e-005
1	734	48.153636559183	7.4e-005
1	808	53.877842439233	8.784e-005
1	816	53.9336881178	8.12e-005
1	824	54.468882855201	6.072e-005
1	843	55.036743370615	8.992e-005
1	851	55.960844429064	0.00010544
1	859	56.809263808102	5.808e-005
1	878	57.679238493872	8.408e-005
1	886	57.722952146492	6.88e-005
1	905	59.963969350688	7.184e-005
1	946	61.233320967705	9.104e-005
1	954	62.522632694212	8.664e-005
1	973	62.719653019243	7.928e-005
1	981	63.959330889239	8.312e-005
1	989	65.406277434	7.384e-005
1	997	67.67836321256	8.328e-005
1	1016	68.347880334051	7.464e-005
1	1024	69.091793905101	9.056e-005
1	1087	73.625413957725	8.024e-005
1	1117	76.512121238029	9.744e-005
1	1136	79.849731157502	5.968e-005
1	1144	80.490180416088	8.368e-005
1	1152	81.41887874663	0.00010552
1	1204	87.317887504567	7.048e-005
1	1245	88.964415463929	4.928e-005
1	1264	91.354505557048	6.744e-005
1	1272	91.692465905526	7.84e-005
1	1324	96.53408801916	7.504e-005
1	1343	98.571629632244	7.688e-005
1	1351	98.900001051187	7.032e-005
1	1381	102.11775821398	7.12e-005
1	1389	102.480477148267	0.00010024
1	1408	103.737033890669	9.448e-005
1	1438	104.254720593494	7.08e-005
1	1446	105.475231203444	7.12e-005
1	1454	107.200932188557	7.312e-005
1	1462	107.346429977911	9.968e-005
1	1492	108.54709203446	0.000106
1	1500	108.663675500189	8.536e-005
1	1508	108.889124907887	7.096e-005
1	1516	108.904327159608	7.776e-005
1	1579	117.739497668384	8.072e-005
1	1587	117.925232208492	8.888e-005
1	1606	120.236649002732	7.776e-005
1	1614	120.439042369994	6.44e-005
1	1633	122.753657276733	8.008e-005
1	1641	122.967655680636	9.312e-005
1	1649	123.604263451346	7.624e-005
1	1657	124.298274151588	8.464e-005
1	1720	127.44835650828	9.256e-005
1	1728	127.834758331876	9.432e-005
1	1747	129.548304236105	6.592e-005
1	1766	130.768449894783	9.576e-005
1	1774	132.176772764145	6.952e-005
1	1804	133.221210227158	9.416e-005
1	1812	133.477165006281	0.0001084
1	1820	133.578599670327	6.624e-005
1	1828	133.608323009331	8.648e-005
1	1858	134.593000804357	6.224e-005
1	1866	134.973710671089	7.088e-005
1	1874	135.362955190494	7.008e-005
1	1882	136.017656682102	9.768e-005
1	1890	136.400186415208	9.048e-005
1	1898	136.625075109287	5.912e-005
1	1906	138.666258908031	8.272e-005
1	1914	141.059744435065	6.216e-005
1	1922	142.4604864078	7.816e-005
1	1996	147.436630084648	8.392e-005
1	2004	149.422624440132	8.432e-005
1	2034	154.292680479718	7.192e-005
1	2042	154.385744217884	5.976e-005
1	2050	155.005566887768	8.016e-005
1	2080	156.296545442056	7.456e-005
1	2088	156.688197382853	7.952e-005
1	2096	156.745840025582	0.0001032
1	2104	156.851917603487	8.936e-005
1	2112	158.074289510219	7.872e-005
1	2142	159.953863772543	8.448e-005
1	2150	160.710486813135	5.752e-005
1	2169	162.267738257631	6.448e-005
1	2188	162.777892147767	9.2e-005
1	2196	163.726136023056	5.808e-005
1	2204	163.963691010168	8.464e-005
1	2223	164.466692222986	9.104e-005
1	2231	165.62934908701	0.00010136
1	2261	167.214984136938	8.104e-005
1	2269	168.587142450916	7.36e-005
1	2277	168.879477249386	8.216e-005
1	2285	168.906553136492	0.0001
1	2293	169.463182136045	0.0001072
1	2301	170.129770159145	8e-005
1	2331	171.225171553287	8.688e-005
1	2339	172.441380718832	7.464e-005
1	2347	173.577856644095	8.304e-005
1	2366	176.826414572851	7.552e-005
1	2374	177.786288424312	7.936e-005
1	2437	181.23855669778	7.816e-005
1	2445	181.624655841703	9.608e-005
1	2453	181.635797341111	6.464e-005
1	2494	183.10634828639	8.264e-005
1	2502	183.397459489452	9e-005
1	2510	183.600276566117	6.712e-005
1	2518	184.096592142933	8.448e-005
1	2526	184.341171121841	7.152e-005
1	2534	184.700026357048	6.28e-005
1	2553	184.91998389544	8.52e-005
1	2561	185.03373032327	8.72e-005
1	2569	185.069889034287	8.8e-005
1	2588	185.71266920177	8.176e-005
1	2596	185.83348781685	0.000106
1	2615	187.73697171226	8.024e-005
1	2623	188.322468166546	8.048e-005
1	2642	189.483919780579	9.696e-005
1	2661	191.128966239423	8.392e-005
1	2669	191.353299808783	7.56e-005
1	2677	191.703465863553	8.72e-005
1	2707	193.070929597135	6.512e-005
1	2726	193.447708436019	8.672e-005
1	2734	194.128797661042	8.232e-005
1	2764	195.951778653749	6.24e-005
1	2772	195.958873101872	7.688e-005
1	2780	196.174985077417	9.416e-005
1	2799	197.17697186414	6.232e-005
1	2818	197.968891759494	9.08e-005
1	2837	198.057107916864	7.696e-005
1	2845	198.528888512077	7.864e-005
1	2853	199.134320823936	0.00010264
1	2861	199.833675152279	8.368e-005
1	2869	201.094687503962	7.36e-005
1	2877	202.775872320867	8.08e-005
1	2885	202.984139937543	7.944e-005
1	2904	204.913977922806	8.848e-005
1	2934	206.046705071882	6.88e-005
1	2942	207.095546595784	6.864e-005
1	2950	207.16394961145	7.584e-005
1	2969	208.045019697209	9.152e-005
1	2999	212.522393884643	7.384e-005
1	3051	214.688258581969	7.56e-005
1	3070	215.596141528795	7.04e-005
1	3078	215.616005592069	8.08e-005
1	3097	216.4843063389	8.448e-005
1	3127	218.735138054046	8.512e-005
1	3135	218.939527332829	9.08e-005
1	3143	220.902818167955	7.256e-005
1	3151	221.314597151912	8.6e-005
1	3159	223.065813750918	9.384e-005
1	3167	223.144005414435	8.136e-005
1	3208	226.99040098543	7.648e-005
1	3227	227.569126887411	0.00010072
1	3235	227.683313782643	7.04e-005
1	3254	228.061988553124	0.00010432
1	3262	228.223520577424	7.248e-005
1	3281	230.376660648832	9.224e-005
1	3289	230.656624240096	8.344e-005
1	3297	231.212660141154	6.352e-005
1	3327	235.097920401426	9.952e-005
1	3346	236.260898316652	0.00010024
1	3365	238.102033073354	9.368e-005
1	3373	238.461799007949	7.736e-005
1	3414	238.905900520759	8.072e-005
1	3433	239.261055836834	8.736e-005
1	3441	239.445123664015	6.488e-005
1	3449	241.512904159785	8.832e-005
1	3468	242.388661532942	8.88e-005
1	3476	242.771679675864	0.00012
1	3506	247.272475557687	6.728e-005
1	3525	248.480610890164	9.536e-005
1	3533	249.25547960116	6.712e-005
1	3585	253.285723196874	9.144e-005
1	3593	253.71494255761	6.592e-005
1	3612	255.515602365868	9.616e-005
1	3631	256.248097686074	6.968e-005
1	3650	258.198929912338	9.952e-005
1	3658	258.279945245487	6.256e-005
1	3666	259.399645309659	9.352e-005
1	3674	259.400210767847	8.304e-005
1	3693	259.540485764532	8.048e-005
1	3734	264.408983770565	7.192e-005
1	3742	264.877022571603	8.28e-005
1	3772	266.452338684349	7.968e-005
1	3780	267.502493575249	7.368e-005
1	3788	268.086274469599	7.16e-005
1	3796	268.967271654944	6.528e-005
1	3815	270.252997213509	7.864e-005
1	3856	276.746404835352	9.864e-005
1	3875	279.821672124964	0.00010544
1	3916	283.067616967713	9.464e-005
1	3968	285.382166122901	8.624e-005
1	3976	286.722616408928	9.68e-005
1	3995	287.068213210518	6.464e-005
1	4003	288.185923810366	5.44e-005
1	4011	288.292052142133	7.616e-005
1	4019	288.547259547554	8.36e-005
1	4038	291.005331866713	8.696e-005
1	4046	291.064560560161	8.144e-005
1	4054	291.561968151126	8.048e-005
1	4062	291.562967887281	8.592e-005
1	4070	292.069693231078	9.28e-005
1	4089	293.008097096083	8.072e-005
1	4097	293.679927529443	6.552e-005
1	4116	295.281088706023	8.056e-005
1	4146	296.120435525313	5.168e-005
1	4165	296.922695481364	9.416e-005
1	4184	298.58613923512	7.304e-005
1	4192	299.930970223875	7.936e-005
1	4200	300.413990161366	9.048e-005
1	4219	301.464726746539	9.968e-005
1	4227	301.479144830913	7.528e-005
1	4246	302.3040055849	8.432e-005
1	4276	306.029696554244	7.528e-005
1	4284	306.060641703544	8.568e-005
1	4314	306.476059649003	0.00010064
1	4322	306.885994174076	7.176e-005
1	4341	307.385726386973	7.568e-005
1	4360	308.396318746008	7.704e-005
1	4379	309.222258429657	7e-005
1	4398	311.247620062641	8.76e-005
1	4406	311.586668837988	8.976e-005
1	4414	312.233406712643	5.664e-005
1	4422	312.594265311007	0.00010344
1	4441	313.283045767011	9.008e-005
1	4449	314.427040224364	0.0001056
1	4490	317.100212055402	7.536e-005
1	4498	317.456269162082	7.68e-005
1	4506	317.511881962709	8.632e-005
1	4525	318.043487880231	8.28e-005
1	4533	318.791850780779	8.36e-005
1	4541	319.511202211212	7.992e-005
1	4560	320.167202974517	7.056e-005
1	4568	320.339527247968	6.344e-005
1	4587	321.621100242735	6.656e-005
1	4617	323.245824338618	7.712e-005
1	4625	323.306704850261	0.00010096
1	4633	323.498178894729	7.44e-005
1	4641	324.17695184263	8.608e-005
1	4660	325.317494641291	7.24e-005
1	4701	327.553699477419	6.928e-005
1	4709	328.001400648148	9.512e-005
1	4717	328.536198642603	9.072e-005
1	4725	328.677132661865	9.608e-005
1	4733	328.863045317747	8.368e-005
1	4741	329.23925486876	7.664e-005
1	4749	329.822892543328	7.728e-005
1	4768	331.175192721887	8.224e-005
1	4776	331.250578316631	6.16e-005
1	4795	335.664428341544	7.76e-005
1	4803	335.67329074677	7.872e-005
1	4811	336.048871411505	6.968e-005
1	4819	337.316982673957	7.888e-005
1	4827	337.632404158374	6.912e-005
1	4857	339.629799910936	6.488e-005
1	4920	343.567120464428	7.16e-005
1	4950	344.919343329456	7.592e-005
1	4958	345.209041068913	7.184e-005
1	4966	345.379434246912	5.32e-005
1	4974	345.43782492061	7.592e-005
1	4982	346.461545521723	7.368e-005
1	5001	347.129743417836	8.736e-005
1	5009	347.406215402091	5.8e-005
1	5017	349.094296193475	8.328e-005
1	5025	349.134493932857	7.72e-005
1	5033	349.932168814376	8.464e-005
1	5052	351.198417633298	8.568e-005
1	5060	351.225363439173	0.00010368
1	5068	351.272602648745	6.808e-005
1	5098	352.778941841502	7.336e-005
1	5117	354.049769982903	6.48e-005
1	5125	354.07415145335	6.712e-005
1	5155	355.360283784924	5.984e-005
1	5174	355.818231447113	9.288e-005
1	5182	356.313863112468	8.144e-005
1	5190	357.198260127544	0.00010704
1	5198	358.831501146633	8.128e-005
1	5206	359.27127268505	7.952e-005
1	5214	359.663036796086	8.968e-005
1	5244	362.16875479509	6.408e-005
1	5296	365.76428834274	0.0001036
1	5315	366.960824708049	7.992e-005
1	5323	368.259992231333	6.744e-005
1	5375	370.759768520101	8.672e-005
1	5394	371.778260340945	8.672e-005
1	5402	372.685417443363	5.072e-005
1	5410	373.569923590536	6.48e-005
1	5418	374.787294930131	8.088e-005
1	5437	376.733460743949	9.992e-005
1	5445	376.808482129162	7.672e-005
1	5486	379.376087004551	7.664e-005
1	5505	379.491948274453	8.48e-005
1	5513	379.501880063413	7.968e-005
1	5543	381.663424987276	8.136e-005
1	5551	382.015968803157	8.992e-005
1	5570	382.57470630667	8.928e-005
1	5578	383.066060783488	6.808e-005
1	5586	384.270616639062	8.84e-005
1	5594	384.425360217466	7.832e-005
1	5602	385.156459023659	7.784e-005
1	5621	385.834243059966	8.12e-005
1	5629	386.105087858659	7.632e-005
1	5637	386.352392819395	0.000102
1	5656	387.526327541033	7.176e-005
1	5664	387.732651361963	9.384e-005
1	5672	387.898385865695	7.824e-005
1	5680	388.000144480548	8.456e-005
1	5699	391.605724224097	8.92e-005
1	5718	392.183364929258	7.624e-005
1	5737	393.119490316062	7.816e-005
1	5767	396.20116682087	8.712e-005
1	5775	397.260439746049	8.464e-005
1	5783	397.430509348947	6.4e-005
1	5791	397.671670873291	8.208e-005
1	5821	399.690374930074	8.92e-005
1	5829	399.877705570125	7.584e-005
1	5870	403.148184971503	9.304e-005
1	5878	404.113586714607	6.648e-005
1	5919	407.776105246125	6.808e-005
1	5927	408.421408981087	8.824e-005
1	5957	409.633978352416	8.984e-005
1	5965	409.77191420188	8.536e-005
1	6006	412.916236652466	9.192e-005
1	6014	413.720549001938	9.664e-005
1	6022	414.198012212255	8.416e-005
1	6030	414.315143301571	9.128e-005
1	6038	414.936335452991	8.936e-005
1	6068	415.78488447441	7.864e-005
1	6076	416.990370127383	7.2e-005
1	6106	418.010712204001	4.016e-005
1	6114	418.086839254156	9.552e-005
1	6122	418.374356941394	8.288e-005
1	6130	418.934923613649	6.4e-005
1	6138	419.696435594608	8.496e-005
1	6146	420.859848789257	8.08e-005
1	6165	423.56880904792	8.056e-005
1	6173	423.618433214166	9.224e-005
1	6181	424.338185424071	9.88e-005
1	6222	426.250291776612	7.744e-005
1	6230	428.658002072815	9.576e-005
1	6282	429.97512431408	7.176e-005
1	6301	431.317643574332	9.512e-005
1	6309	431.36730374171	7.992e-005
1	6317	431.888584012384	9.32e-005
1	6325	432.198802997933	5.928e-005
1	6333	432.436632719748	7.408e-005
1	6363	435.582762300106	8.344e-005
1	6371	435.717597088955	8.744e-005
1	6401	437.772284420695	9.2e-005
1	6475	445.934629880615	9.16e-005
1	6483	446.325338764969	9.24e-005
1	6491	446.340295938122	9.032e-005
1	6499	446.924066870208	8.152e-005
1	6507	447.527194180875	9.272e-005
1	6537	448.848623257031	7.456e-005
1	6545	448.893892219733	8.032e-005
1	6553	450.587081301493	7.424e-005
1	6561	451.511115544116	9.984e-005
1	6580	452.082468626364	6.696e-005
1	6610	452.895602782337	7.408e-005
1	6618	453.130470235498	8.16e-005
1	6626	453.400937665575	7.864e-005
1	6645	453.864498071244	9.48e-005
1	6653	454.230539054053	0.0001192
1	6672	455.03011781787	6.744e-005
1	6680	455.119782890622	6.848e-005
1	6688	455.155397858859	7.208e-005
1	6707	455.948218949883	8.896e-005
1	6715	457.100837898116	7.968e-005
1	6734	459.482586961236	0.00010184
1	6742	459.96294640262	7.424e-005
1	6750	460.13293338254	6.336e-005
1	6758	460.922841031393	5.816e-005
1	6788	462.46844731037	7.272e-005
1	6807	462.882903690686	7.248e-005
1	6815	463.60086276276	5.04e-005
1	6823	463.879164739756	7.384e-005
1	6864	466.222796953887	8.08e-005
1	6883	467.168771392142	7.952e-005
1	6891	467.298271978764	8.296e-005
1	6899	467.299986370374	7.736e-005
1	6940	471.672321274992	9.464e-005
1	6959	472.654733261674	7.952e-005
1	6967	472.926873735077	0.00010088
1	6997	476.83411756547	7.168e-005
1	7016	478.007877761914	8e-005
1	7024	478.65593813939	7.4e-005
1	7032	478.936623420151	9.728e-005
1	7051	480.727881717631	8.128e-005
1	7092	481.596111248038	7.32e-005
1	7122	484.234158504782	8.256e-005
1	7141	485.032296300073	7.6e-005
1	7149	485.495366170786	7.088e-005
1	7157	485.697677835812	8.048e-005
1	7187	488.710698027509	9.416e-005
1	7195	488.761953079054	9.392e-005
1	7214	490.116822027798	7.648e-005
1	7222	490.233002342699	8.888e-005
1	7230	490.51870598464	8.064e-005
1	7238	490.786384191057	7.512e-005
1	7257	492.202468540483	8.192e-005
1	7265	494.132566998457	8.664e-005
1	7306	494.61646300186	7.232e-005
1	7314	494.780218854201	6.296e-005
1	7322	495.341702951935	8.52e-005
1	7330	496.38172985088	6.752e-005
1	7338	496.657973126449	8.648e-005
1	7368	498.467863504073	9.648e-005
1	7387	499.692045265454	8.128e-005
1	7395	499.779628615119	8.888e-005
2	73	2.741783372616	2.741783372616
2	122	3.912461804421	1.170678431805
2	157	5.586226075649	1.673764271228
2	165	6.90153831712	1.315312241471
2	328	15.219532944491	8.317994627371
2	363	15.703657840694	0.484124896203
2	482	26.825053503952	11.121395663258
2	531	27.856279543925	1.031226039973
2	593	32.500524845706	4.644245301781
2	620	35.696236921792	3.195712076086
2	666	40.62497365038	4.928736728588
2	824	54.468882855201	13.843909204821
2	851	55.960844429064	1.491961573863
2	878	57.679238493872	1.718394064808
2	886	57.722952146492	0.04371365262
2	1351	98.900001051187	41.177048904695
2	1890	136.400186415208	37.500185364021
2	1898	136.625075109287	0.224888694079
2	2150	160.710486813135	24.085411703848
2	2188	162.777892147767	2.067405334632
2	2261	167.214984136938	4.437091989171
2	2366	176.826414572851	9.611430435913
2	2445	181.624655841703	4.798241268852
2	2494	183.10634828639	1.481692444687
2	2510	183.600276566117	0.493928279727
2	2569	185.069889034287	1.46961246817
2	2615	187.73697171226	2.667082677973
2	2677	191.703465863553	3.966494151293
2	2734	194.128797661042	2.425331797489
2	2837	198.057107916864	3.928310255822
2	2877	202.775872320867	4.718764404003
2	2950	207.16394961145	4.388077290583
2	2999	212.522393884643	5.358444273193
2	3078	215.616005592069	3.093611707426
2	3143	220.902818167955	5.286812575886
2	3151	221.314597151912	0.411778983957
2	3159	223.065813750918	1.751216599006
2	3262	228.223520577424	5.157706826506
2	3289	230.656624240096	2.433103662672
2	3327	235.097920401426	4.44129616133
2	3365	238.102033073354	3.004112671928
2	3476	242.771679675864	4.66964660251
2	3666	259.399645309659	16.627965633795
2	3916	283.067616967713	23.667971658054
2	3968	285.382166122901	2.314549155188
2	3995	287.068213210518	1.686047087617
2	4054	291.561968151126	4.493754940608
2	4062	291.562967887281	0.000999736155
2	4341	307.385726386973	15.822758499692
2	4360	308.396318746008	1.010592359035
2	4379	309.222258429657	0.825939683649
2	4406	311.586668837988	2.364410408331
2	4422	312.594265311007	1.007596473019
2	4587	321.621100242735	9.026834931728
2	4641	324.17695184263	2.555851599895
2	4733	328.863045317747	4.686093475117
2	4857	339.629799910936	10.766754593189
2	4958	345.209041068913	5.579241157977
2	4974	345.43782492061	0.228783851697
2	5098	352.778941841502	7.341116920892
2	5117	354.049769982903	1.270828141401
2	5125	354.07415145335	0.024381470447
2	5190	357.198260127544	3.124108674194
2	5198	358.831501146633	1.633241019089
2	5206	359.27127268505	0.439771538417
2	5214	359.663036796086	0.391764111036
2	5296	365.76428834274	6.101251546654
2	5315	366.960824708049	1.196536365309
2	5323	368.259992231333	1.299167523284
2	5402	372.685417443363	4.42542521203
2	5418	374.787294930131	2.101877486768
2	5437	376.733460743949	1.946165813818
2	5551	382.015968803157	5.282508059208
2	5629	386.105087858659	4.089119055502
2	5664	387.732651361963	1.627563503304
2	6014	413.720549001938	25.987897639975
2	6022	414.198012212255	0.477463210317
2	6068	415.78488447441	1.586872262155
2	6122	418.374356941394	2.589472466984
2	6130	418.934923613649	0.560566672255
2	6138	419.696435594608	0.761511980959
2	6173	423.618433214166	3.921997619558
2	6309	431.36730374171	7.748870527544
2	6325	432.198802997933	0.831499256223
2	6333	432.436632719748	0.237829721815
2	6475	445.934629880615	13.497997160867
2	6499	446.924066870208	0.989436989593
2	6507	447.527194180875	0.603127310667
2	6537	448.848623257031	1.321429076156
2	6545	448.893892219733	0.045268962702
2	6561	451.511115544116	2.617223324383
2	6610	452.895602782337	1.384487238221
2	6618	453.130470235498	0.234867453161
2	6680	455.119782890622	1.989312655124
2	6688	455.155397858859	0.035614968237
2	6707	455.948218949883	0.792821091024
2	6734	459.482586961236	3.534368011353
2	6750	460.13293338254	0.650346421304
2	6807	462.882903690686	2.749970308146
2	6997	476.83411756547	13.951213874784
2	7032	478.936623420151	2.102505854681
2	7141	485.032296300073	6.095672879922
2	7195	488.761953079054	3.729656778981
2	7238	490.786384191057	2.024431112003
2	7257	492.202468540483	1.416084349426
2	7338	496.657973126449	4.455504585966
3	114	3.552666222063	3.552666222063
3	149	5.519379113493	1.96671289143
3	181	9.028270580657	3.508891467164
3	355	15.653805882887	6.62553530223
3	379	18.19565273924	2.541846856353
3	387	18.392522952291	0.196870213051
3	433	23.192402432825	4.799879480534
3	601	35.470870220692	12.278467787867
3	639	38.003498715324	2.532628494632
3	658	40.134344360955	2.130845645631
3	685	41.770994768868	1.636650407913
3	808	53.877842439233	12.106847670365
3	816	53.9336881178	0.055845678567
3	1087	73.625413957725	19.691725839925
3	1152	81.41887874663	7.793464788905
3	1204	87.317887504567	5.899008757937
3	1408	103.737033890669	16.419146386102
3	1454	107.200932188557	3.463898297888
3	1641	122.967655680636	15.766723492079
3	1720	127.44835650828	4.480700827644
3	1728	127.834758331876	0.386401823596
3	1766	130.768449894783	2.933691562907
3	1804	133.221210227158	2.452760332375
3	1866	134.973710671089	1.752500443931
3	1996	147.436630084648	12.462919413559
3	2080	156.296545442056	8.859915357408
3	2096	156.745840025582	0.449294583526
3	2169	162.267738257631	5.521898232049
3	2231	165.62934908701	3.361610829379
3	2277	168.879477249386	3.250128162376
3	2331	171.225171553287	2.345694303901
3	2453	181.635797341111	10.410625787824
3	2502	183.397459489452	1.761662148341
3	2518	184.096592142933	0.699132653481
3	2534	184.700026357048	0.603434214115
3	2553	184.91998389544	0.219957538392
3	2642	189.483919780579	4.563935885139
3	2669	191.353299808783	1.869380028204
3	2726	193.447708436019	2.094408627236
3	2764	195.951778653749	2.50407021773
3	2845	198.528888512077	2.577109858328
3	2853	199.134320823936	0.605432311859
3	2969	208.045019697209	8.910698873273
3	3051	214.688258581969	6.64323888476
3	3097	216.4843063389	1.796047756931
3	3127	218.735138054046	2.250831715146
3	3135	218.939527332829	0.204389278783
3	3346	236.260898316652	17.321370983823
3	3414	238.905900520759	2.645002204107
3	3441	239.445123664015	0.539223143256
3	3631	256.248097686074	16.802974022059
3	3658	258.279945245487	2.031847559413
3	4003	288.185923810366	29.905978564879
3	4038	291.005331866713	2.819408056347
3	4070	292.069693231078	1.064361364365
3	4146	296.120435525313	4.050742294235
3	4165	296.922695481364	0.802259956051
3	4184	298.58613923512	1.663443753756
3	4219	301.464726746539	2.878587511419
3	4227	301.479144830913	0.014418084374
3	4246	302.3040055849	0.824860753987
3	4276	306.029696554244	3.725690969344
3	4568	320.339527247968	14.309830693724
3	4660	325.317494641291	4.977967393323
3	4717	328.536198642603	3.218704001312
3	4741	329.23925486876	0.703056226157
3	4749	329.822892543328	0.583637674568
3	4776	331.250578316631	1.427685773303
3	4803	335.67329074677	4.422712430139
3	4811	336.048871411505	0.375580664735
3	4819	337.316982673957	1.268111262452
3	4827	337.632404158374	0.315421484417
3	4920	343.567120464428	5.934716306054
3	4966	345.379434246912	1.812313782484
3	5025	349.134493932857	3.755059685945
3	5375	370.759768520101	21.625274587244
3	5394	371.778260340945	1.018491820844
3	5486	379.376087004551	7.597826663606
3	5578	383.066060783488	3.689973778937
3	5594	384.425360217466	1.359299433978
3	5656	387.526327541033	3.100967323567
3	5699	391.605724224097	4.079396683064
3	5718	392.183364929258	0.577640705161
3	5767	396.20116682087	4.017801891612
3	5783	397.430509348947	1.229342528077
3	5870	403.148184971503	5.717675622556
3	5878	404.113586714607	0.965401743104
3	5919	407.776105246125	3.662518531518
3	5957	409.633978352416	1.857873106291
3	5965	409.77191420188	0.137935849464
3	6076	416.990370127383	7.218455925503
3	6222	426.250291776612	9.259921649229
3	6230	428.658002072815	2.407710296203
3	6282	429.97512431408	1.317122241265
3	6317	431.888584012384	1.913459698304
3	6483	446.325338764969	14.436754752585
3	6653	454.230539054053	7.905200289084
3	6672	455.03011781787	0.799578763817
3	6788	462.46844731037	7.4383294925
3	6823	463.879164739756	1.410717429386
3	6883	467.168771392142	3.289606652386
3	6891	467.298271978764	0.129500586622
3	6899	467.299986370374	0.00171439161
3	6940	471.672321274992	4.372334904618
3	6959	472.654733261674	0.982411986682
3	7051	480.727881717631	8.073148455957
3	7092	481.596111248038	0.868229530407
3	7187	488.710698027509	7.114586779471
3	7306	494.61646300186	5.905764974351
3	7368	498.467863504073	3.851400502213
3	7395	499.779628615119	1.311765111046
4	200	10.422921944673	10.422921944673
4	260	12.716706860812	2.293784916139
4	268	13.667221082527	0.950514221715
4	320	15.171653353846	1.504432271319
4	347	15.344900217577	0.173246863731
4	371	17.333419184362	1.988518966785
4	512	27.502232157677	10.168812973315
4	558	30.554850739659	3.052618581982
4	566	31.170851914258	0.616001174599
4	574	32.071542067848	0.90069015359
4	693	42.022070599142	9.950528531294
4	859	56.809263808102	14.78719320896
4	905	59.963969350688	3.154705542586
4	973	62.719653019243	2.755683668555
4	981	63.959330889239	1.239677869996
4	1024	69.091793905101	5.132463015862
4	1245	88.964415463929	19.872621558828
4	1264	91.354505557048	2.390090093119
4	1272	91.692465905526	0.337960348478
4	1389	102.480477148267	10.788011242741
4	1438	104.254720593494	1.774243445227
4	1462	107.346429977911	3.091709384417
4	1508	108.889124907887	1.542694929976
4	1579	117.739497668384	8.850372760497
4	1587	117.925232208492	0.185734540108
4	1614	120.439042369994	2.513810161502
4	1633	122.753657276733	2.314614906739
4	1649	123.604263451346	0.850606174613
4	1828	133.608323009331	10.004059557985
4	1858	134.593000804357	0.984677795026
4	1906	138.666258908031	4.073258103674
4	1922	142.4604864078	3.794227499769
4	2004	149.422624440132	6.962138032332
4	2104	156.851917603487	7.429293163355
4	2196	163.726136023056	6.874218419569
4	2204	163.963691010168	0.237554987112
4	2223	164.466692222986	0.503001212818
4	2301	170.129770159145	5.663077936159
4	2339	172.441380718832	2.311610559687
4	2347	173.577856644095	1.136475925263
4	2596	185.83348781685	12.255631172755
4	2707	193.070929597135	7.237441780285
4	2799	197.17697186414	4.106042267005
4	2818	197.968891759494	0.791919895354
4	2861	199.833675152279	1.864783392785
4	2885	202.984139937543	3.150464785264
4	2904	204.913977922806	1.929837985263
4	3070	215.596141528795	10.682163605989
4	3167	223.144005414435	7.54786388564
4	3373	238.461799007949	15.317793593514
4	3433	239.261055836834	0.799256828885
4	3449	241.512904159785	2.251848322951
4	3468	242.388661532942	0.875757373157
4	3506	247.272475557687	4.883814024745
4	3585	253.285723196874	6.013247639187
4	3734	264.408983770565	11.123260573691
4	3772	266.452338684349	2.043354913784
4	3780	267.502493575249	1.0501548909
4	3788	268.086274469599	0.58378089435
4	3796	268.967271654944	0.880997185345
4	3815	270.252997213509	1.285725558565
4	3976	286.722616408928	16.469619195419
4	4019	288.547259547554	1.824643138626
4	4089	293.008097096083	4.460837548529
4	4097	293.679927529443	0.67183043336
4	4116	295.281088706023	1.60116117658
4	4192	299.930970223875	4.649881517852
4	4200	300.413990161366	0.483019937491
4	4398	311.247620062641	10.833629901275
4	4414	312.233406712643	0.985786650002
4	4441	313.283045767011	1.049639054368
4	4490	317.100212055402	3.817166288391
4	4498	317.456269162082	0.35605710668
4	4525	318.043487880231	0.587218718149
4	4560	320.167202974517	2.123715094286
4	4701	327.553699477419	7.386496502902
4	4709	328.001400648148	0.447701170729
4	4725	328.677132661865	0.675732013717
4	4768	331.175192721887	2.498060060022
4	4982	346.461545521723	15.286352799836
4	5009	347.406215402091	0.944669880368
4	5017	349.094296193475	1.688080791384
4	5033	349.932168814376	0.837872620901
4	5068	351.272602648745	1.340433834369
4	5174	355.818231447113	4.545628798368
4	5244	362.16875479509	6.350523347977
4	5445	376.808482129162	14.639727334072
4	5505	379.491948274453	2.683466145291
4	5513	379.501880063413	0.00993178896
4	5586	384.270616639062	4.768736575649
4	5602	385.156459023659	0.885842384597
4	5621	385.834243059966	0.677784036307
4	5672	387.898385865695	2.064142805729
4	5680	388.000144480548	0.101758614853
4	5791	397.671670873291	9.671526392743
4	5821	399.690374930074	2.018704056783
4	5829	399.877705570125	0.187330640051
4	6006	412.916236652466	13.038531082341
4	6146	420.859848789257	7.943612136791
4	6165	423.56880904792	2.708960258663
4	6301	431.317643574332	7.748834526412
4	6401	437.772284420695	6.454640846363
4	6742	459.96294640262	22.190661981925
4	6758	460.922841031393	0.959894628773
4	6815	463.60086276276	2.678021731367
4	6864	466.222796953887	2.621934191127
4	7024	478.65593813939	12.433141185503
4	7122	484.234158504782	5.578220365392
4	7214	490.116822027798	5.882663523016
4	7222	490.233002342699	0.116180314901
4	7230	490.51870598464	0.285703641941
4	7265	494.132566998457	3.613861013817
4	7314	494.780218854201	0.647651855744
4	7322	495.341702951935	0.561484097734
4	7387	499.692045265454	4.350342313519

