version 2
run General-7-20220514-10:33:56-17812
attr configname General
attr datetime 20220514-10:33:56
attr experiment General
attr inifile omnetpp.ini
attr iterationvars $0=0.8
attr iterationvarsf 0.8-
attr measurement $0=0.8
attr network Lab2
attr processid 17812
attr repetition 0
attr replication #0
attr resultdir results
attr runnumber 7
attr seedset 7
param **.sim_time 500s
param **.next_event_par 1.0/(0.8)
param **.pck_len_mean 1000
param **.pck_len_stddev 150
param **.pck_len_min 26
param **.pck_len_max 1480
param **.num_of_hosts 4
param **.host1.ipAddr.IP_addr 0
param **.host2.ipAddr.IP_addr 1
param **.host3.ipAddr.IP_addr 2
param **.host4.ipAddr.IP_addr 3
param **.arp_ttl 10s
param **.host1.eth.MAC_addr 0
param **.host2.eth.MAC_addr 1
param **.host3.eth.MAC_addr 2
param **.host4.eth.MAC_addr 3
param **.aging_time 1s

vector 0 Lab2.host1.eth interval:vector ETV
attr interpolationmode none
attr source interval
attr title "interval, vector"
vector 1 Lab2 delay:vector ETV
attr interpolationmode none
attr source delay
attr title "delay, vector"
vector 2 Lab2.host3.eth interval:vector ETV
attr interpolationmode none
attr source interval
attr title "interval, vector"
vector 3 Lab2.host2.eth interval:vector ETV
attr interpolationmode none
attr source interval
attr title "interval, vector"
vector 4 Lab2.host4.eth interval:vector ETV
attr interpolationmode none
attr source interval
attr title "interval, vector"
0	68	2.41851799066	2.41851799066
0	117	5.045897297027	2.627379306367
0	125	5.097645410238	0.051748113211
0	294	10.998685866734	5.901040456496
0	318	11.46021883774	0.461532971006
0	408	14.360566756534	2.900347918794
0	432	15.10899364909	0.748426892556
0	475	16.743857952167	1.634864303077
0	534	18.46180402711	1.717946074943
0	585	20.498058331897	2.036254304787
0	609	21.274998862171	0.776940530274
0	628	21.957057508557	0.682058646386
0	647	22.08705275172	0.129995243163
0	655	22.304290696744	0.217237945024
0	671	22.540362445399	0.236071748655
0	714	25.164190255968	2.623827810569
0	782	26.094345002697	0.930154746729
0	790	26.222162342633	0.127817339936
0	852	27.867439404841	1.645277062208
0	860	28.14731964487	0.279880240029
0	868	28.152606857598	0.005287212728
0	922	31.07785978566	2.925252928062
0	994	33.65612656649	2.57826678083
0	1013	35.079515417462	1.423388850972
0	1262	44.616179024793	9.536663607331
0	1399	50.829442904721	6.213263879928
0	1429	51.055891917548	0.226449012827
0	1453	53.253943368945	2.198051451397
0	1567	55.677630814783	2.423687445838
0	1583	55.79127951544	0.113648700657
0	1615	56.635947929499	0.844668414059
0	1650	60.091420668782	3.455472739283
0	1658	60.120202619585	0.028781950803
0	1733	64.14419198964	4.023989370055
0	1774	67.71178202843	3.56759003879
0	1845	70.171420305627	2.459638277197
0	1910	72.257716852585	2.086296546958
0	1950	73.985351531199	1.727634678614
0	1966	74.11599336556	0.130641834361
0	1990	74.249405537172	0.133412171612
0	1998	74.615331076407	0.365925539235
0	2228	82.668888288008	8.053557211601
0	2343	87.462300275115	4.793411987107
0	2389	90.413638719415	2.9513384443
0	2508	94.674300297904	4.260661578489
0	2516	94.943102060836	0.268801762932
0	2683	100.873781067058	5.930679006222
0	2726	102.271847539666	1.398066472608
0	2734	102.944107249934	0.672259710268
0	2788	104.338921952407	1.394814702473
0	2923	107.252517049962	2.913595097555
0	2939	107.682400176153	0.429883126191
0	2947	108.168135818166	0.485735642013
0	3022	111.728278905832	3.560143087666
0	3197	119.31675823329	7.588479327458
0	3235	120.200205021844	0.883446788554
0	3316	121.801560274354	1.60135525251
0	3386	124.818335447992	3.016775173638
0	3394	124.822541267977	0.004205819985
0	3410	125.250411601101	0.427870333124
0	3448	125.944664512117	0.694252911016
0	3547	129.500271232677	3.55560672056
0	3736	135.352907171298	5.852635938621
0	3766	135.538457881123	0.185550709825
0	3774	136.418900431962	0.880442550839
0	3817	139.552477333658	3.133576901696
0	3844	140.2453913423	0.692914008642
0	3887	141.284109159538	1.038717817238
0	3903	142.568785323731	1.284676164193
0	3933	143.185992139381	0.61720681565
0	3949	143.762535493434	0.576543354053
0	3984	144.707175932883	0.944640439449
0	4014	146.500469243943	1.79329331106
0	4041	147.172444259841	0.671975015898
0	4049	147.276671140073	0.104226880232
0	4100	148.804336388503	1.52766524843
0	4124	150.058357428191	1.254021039688
0	4154	152.007160628158	1.948803199967
0	4392	160.95340925725	8.946248629092
0	4400	160.98248678859	0.02907753134
0	4462	164.1036432055	3.12115641691
0	4478	164.562819543695	0.459176338195
0	4502	166.130848299189	1.568028755494
0	4548	166.692059148284	0.561210849095
0	4602	167.302728391056	0.610669242772
0	4618	167.672229878151	0.369501487095
0	4653	168.634331619416	0.962101741265
0	4661	168.831369752535	0.197038133119
0	4707	171.358479159131	2.527109406596
0	4715	171.413182601634	0.054703442503
0	4812	175.651850034941	4.238667433307
0	5063	184.731717200804	9.079867165863
0	5090	184.975152786123	0.243435585319
0	5098	185.134152085899	0.158999299776
0	5157	186.710267883034	1.576115797135
0	5192	187.285238567505	0.574970684471
0	5235	188.432456285318	1.147217717813
0	5243	188.545662999843	0.113206714525
0	5318	191.420317423359	2.874654423516
0	5380	192.349307753574	0.928990330215
0	5399	192.520229498768	0.170921745194
0	5504	196.829066301124	4.308836802356
0	5612	200.353367282131	3.524300981007
0	5807	208.572580673186	8.219213391055
0	5815	209.746808865612	1.174228192426
0	5847	210.550564471243	0.803755605631
0	5863	211.222748471132	0.672183999889
0	5879	212.497432900314	1.274684429182
0	5898	212.665809136298	0.168376235984
0	5963	214.279233013151	1.613423876853
0	5990	215.787130863457	1.507897850306
0	6014	216.998027252533	1.210896389076
0	6187	224.239935616402	7.241908363869
0	6244	225.485678473343	1.245742856941
0	6260	226.56044492073	1.074766447387
0	6295	227.616000566723	1.055555645993
0	6381	231.023666554793	3.40766598807
0	6489	233.844498648861	2.820832094068
0	6527	234.599307544415	0.754808895554
0	6567	236.081849394169	1.482541849754
0	6575	236.317824289795	0.235974895626
0	6618	237.146174486256	0.828350196461
0	6637	237.62249781024	0.476323323984
0	6653	237.907021191913	0.284523381673
0	6661	238.186299336455	0.279278144542
0	6685	238.992767376133	0.806468039678
0	6709	239.877195786717	0.884428410584
0	6774	242.17771509697	2.300519310253
0	6801	242.761545642043	0.583830545073
0	6890	245.943209795145	3.181664153102
0	6909	246.257026206963	0.313816411818
0	6917	246.604585116101	0.347558909138
0	6925	246.923929555445	0.319344439344
0	6952	247.322529481038	0.398599925593
0	7019	250.754505368379	3.431975887341
0	7027	250.830064300805	0.075558932426
0	7105	252.99833295438	2.168268653575
0	7132	253.602779680072	0.604446725692
0	7167	254.144256027747	0.541476347675
0	7205	254.66408548515	0.519829457403
0	7291	256.788173082295	2.124087597145
0	7364	259.544911637608	2.756738555313
0	7423	261.703950603374	2.159038965766
0	7431	261.925099305427	0.221148702053
0	7463	262.807768907653	0.882669602226
0	7517	265.327795379449	2.520026471796
0	7555	266.636845392271	1.309050012822
0	7579	267.617680442527	0.980835050256
0	7625	268.651050835057	1.03337039253
0	7649	269.260187089554	0.609136254497
0	7668	271.57809278366	2.317905694106
0	7706	272.674368262841	1.096275479181
0	7722	273.016900095355	0.342531832514
0	7843	276.64154104572	3.624640950365
0	8051	282.995847119368	6.354306073648
0	8131	286.6943872386	3.698540119232
0	8428	300.805917549162	14.111530310562
0	8444	301.233680276358	0.427762727196
0	8549	304.914680462805	3.681000186447
0	8576	305.191598742257	0.276918279452
0	8686	307.130327844288	1.938729102031
0	8743	309.37425127909	2.243923434802
0	8864	311.167669299263	1.793418020173
0	8888	311.510032701294	0.342363402031
0	8928	312.470997130212	0.960964428918
0	8992	315.41027338054	2.939276250328
0	9000	315.587501212025	0.177227831485
0	9008	315.738739425023	0.151238212998
0	9043	317.337081819833	1.59834239481
0	9062	317.699511297764	0.362429477931
0	9119	318.967338476065	1.267827178301
0	9313	324.501686878146	5.534348402081
0	9321	324.502604626157	0.000917748011
0	9337	324.597041340967	0.09443671481
0	9361	326.101616428209	1.504575087242
0	9369	326.241045122165	0.139428693956
0	9377	326.506098550066	0.265053427901
0	9447	328.22687212481	1.720773574744
0	9471	330.152858797027	1.925986672217
0	9490	330.808506426084	0.655647629057
0	9550	332.993827310453	2.185320884369
0	9773	340.603864023272	7.610036712819
0	9808	341.843190142485	1.239326119213
0	9824	342.230137229822	0.386947087337
0	9897	343.672083493919	1.441946264097
0	9924	344.155655288572	0.483571794653
0	9970	344.831552504426	0.675897215854
0	9978	344.884887178556	0.05333467413
0	10077	348.299984947048	3.415097768492
0	10131	351.336304448213	3.036319501165
0	10161	351.81705938543	0.480754937217
0	10193	354.64067687225	2.82361748682
0	10201	354.890125059145	0.249448186895
0	10220	355.347059484989	0.456934425844
0	10266	356.621256331222	1.274196846233
0	10312	359.046672965256	2.425416634034
0	10320	359.760122432174	0.713449466918
0	10339	360.0319889657	0.271866533526
0	10393	361.369819139479	1.337830173779
0	10490	366.083986897307	4.714167757828
0	10522	366.914897411916	0.830910514609
0	10560	368.223320242009	1.308422830093
0	10584	368.841365778169	0.61804553616
0	10600	369.28897226389	0.447606485721
0	10624	370.415938140706	1.126965876816
0	10651	370.704225324494	0.288287183788
0	10675	371.158830846999	0.454605522505
0	10713	372.62558383756	1.466752990561
0	10754	373.080524781981	0.454940944421
0	10781	373.53180488371	0.451280101729
0	10821	374.918754059379	1.386949175669
0	10829	375.538267831843	0.619513772464
0	10902	377.412284668474	1.874016836631
0	10910	377.96258482641	0.550300157936
0	10918	378.161974280141	0.199389453731
0	10953	380.012036003575	1.850061723434
0	10993	381.895756499932	1.883720496357
0	11077	384.566404532586	2.670648032654
0	11096	384.995542449451	0.429137916865
0	11142	386.737355428792	1.741812979341
0	11220	389.470598498668	2.733243069876
0	11236	390.007367158483	0.536768659815
0	11252	390.587449962757	0.580082804274
0	11287	391.109950868622	0.522500905865
0	11314	391.536744468945	0.426793600323
0	11438	394.528726913036	2.991982444091
0	11497	397.371619763796	2.84289285076
0	11513	397.51330471462	0.141684950824
0	11594	398.754436581168	1.241131866548
0	11610	399.875921613132	1.121485031964
0	11642	400.87156482732	0.995643214188
0	11669	402.274305347	1.40274051968
0	11968	412.678739550437	10.404434203437
0	12003	414.036326226849	1.357586676412
0	12011	414.363180338489	0.32685411164
0	12043	415.491135102052	1.127954763563
0	12059	415.880824268745	0.389689166693
0	12067	416.612111390637	0.731287121892
0	12105	417.637450819351	1.025339428714
0	12151	419.230132348059	1.592681528708
0	12170	419.441373366666	0.211241018607
0	12216	421.334448167751	1.893074801085
0	12243	422.003591676215	0.669143508464
0	12289	422.79241862693	0.788826950715
0	12305	423.190782659423	0.398364032493
0	12313	423.354653719435	0.163871060012
0	12356	424.48843825918	1.133784539745
0	12415	426.13570390461	1.64726564543
0	12447	426.558215083083	0.422511178473
0	12479	427.625778012714	1.067562929631
0	12487	427.831859343706	0.206081330992
0	12511	428.819018161658	0.987158817952
0	12527	429.009553380235	0.190535218577
0	12627	431.281362057459	2.271808677224
0	12646	432.347496583125	1.066134525666
0	12697	434.012118445932	1.664621862807
0	12751	435.893988716719	1.881870270787
0	12759	436.030187922793	0.136199206074
0	12767	436.205526083715	0.175338160922
0	12805	438.109271868448	1.903745784733
0	13026	449.161316630748	11.0520447623
0	13189	457.112100445816	7.950783815068
0	13358	463.465749361384	6.353648915568
0	13439	464.99129654481	1.525547183426
0	13539	466.723693264552	1.732396719742
0	13595	468.303960257697	1.580266993145
0	13627	470.190452726618	1.886492468921
0	13646	471.38654111457	1.196088387952
0	13719	472.286456159933	0.899915045363
0	13754	472.707410777253	0.42095461732
0	13770	473.269293987429	0.561883210176
0	13778	473.539704989341	0.270411001912
0	13829	475.694420865776	2.154715876435
0	13953	478.548872515135	2.854451649359
0	13972	478.920784518239	0.371912003104
0	14036	480.578475370887	1.657690852648
0	14198	486.110934558478	5.532459187591
0	14206	486.602890778124	0.491956219646
0	14236	487.2626068183	0.659716040176
0	14244	487.438091772354	0.175484954054
0	14252	487.485427148729	0.047335376375
0	14322	489.09240427014	1.606977121411
0	14330	489.3325644941	0.24016022396
0	14378	492.300914854116	2.968350360016
0	14416	492.840080102501	0.539165248385
0	14432	493.600226830629	0.760146728128
0	14440	494.491707133788	0.891480303159
0	14475	495.92825707611	1.436549942322
1	68	2.41851799066	9.664e-005
1	109	4.783790896864	8.536e-005
1	117	5.045897297027	7.544e-005
1	125	5.097645410238	7.608e-005
1	133	5.366249961681	8.312e-005
1	141	5.972266710567	7.008e-005
1	149	6.190019928492	8.664e-005
1	157	6.610355999691	6.976e-005
1	165	6.857796302607	8.048e-005
1	184	6.966787661428	7.488e-005
1	192	7.393565340453	6.488e-005
1	211	8.030402038813	7.264e-005
1	219	8.059472054071	7.04e-005
1	238	9.396954371587	9.648e-005
1	246	9.556150281671	6.088e-005
1	254	9.748597564181	0.0001004
1	262	10.120641239715	0.00010968
1	270	10.139554100981	6.704e-005
1	278	10.329283048374	0.0001008
1	286	10.588801622644	6.896e-005
1	294	10.998685866734	7.536e-005
1	302	11.158481853071	8.128e-005
1	310	11.38793375709	8.952e-005
1	318	11.46021883774	7.304e-005
1	337	12.576801796638	8.384e-005
1	378	13.828760618247	9.032e-005
1	408	14.360566756534	9.192e-005
1	416	14.559484652492	7.04e-005
1	424	14.649193298162	7.048e-005
1	432	15.10899364909	9.344e-005
1	451	16.158438635309	6.136e-005
1	459	16.167420735432	7.184e-005
1	467	16.253880334832	8.248e-005
1	475	16.743857952167	6.808e-005
1	483	16.944976252426	9.28e-005
1	491	17.11635792824	7.4e-005
1	499	17.228471427707	8.504e-005
1	507	17.925556278776	8.76e-005
1	515	17.949744995775	9.288e-005
1	534	18.46180402711	8.616e-005
1	542	18.786808098667	0.00011072
1	561	19.398409811497	9.888e-005
1	569	20.007534926238	7.792e-005
1	577	20.203620156509	5.408e-005
1	585	20.498058331897	9.984e-005
1	593	20.628690278729	8.576e-005
1	601	20.729553231589	0.00010384
1	609	21.274998862171	0.0001036
1	628	21.957057508557	7.808e-005
1	647	22.08705275172	7.672e-005
1	655	22.304290696744	0.00011872
1	663	22.479995186549	8.312e-005
1	671	22.540362445399	8.28e-005
1	679	22.6499067892	8.416e-005
1	698	24.69965873833	8.328e-005
1	706	25.095759786689	7.232e-005
1	714	25.164190255968	9.968e-005
1	755	25.715098924777	7.424e-005
1	774	25.933379183934	9.288e-005
1	782	26.094345002697	8.544e-005
1	790	26.222162342633	8.952e-005
1	809	26.553208349166	8.768e-005
1	817	26.834620387562	9.336e-005
1	836	26.939795123136	8.112e-005
1	844	27.286440291511	8.048e-005
1	852	27.867439404841	7.544e-005
1	860	28.14731964487	7.496e-005
1	868	28.152606857598	0.00011304
1	887	29.751711822768	8.36e-005
1	895	30.102018171415	7.76e-005
1	914	30.724284583664	9.024e-005
1	922	31.07785978566	7.464e-005
1	930	31.19834198793	6.192e-005
1	938	31.367030134833	9.456e-005
1	946	31.505281842013	8.976e-005
1	954	31.973895290036	8.248e-005
1	962	32.039632140104	9.416e-005
1	970	32.836494828223	7.264e-005
1	978	33.080246663724	7.112e-005
1	986	33.128720756945	8.072e-005
1	994	33.65612656649	7.136e-005
1	1013	35.079515417462	7.128e-005
1	1021	35.092302229893	8.184e-005
1	1040	35.491723433411	9.568e-005
1	1081	37.85385739948	7.168e-005
1	1089	38.169539938107	9.6e-005
1	1097	38.20227382099	8.032e-005
1	1105	38.434692021363	7.432e-005
1	1124	38.667834936585	7.016e-005
1	1132	39.374428993202	8.856e-005
1	1162	40.574243822148	8.84e-005
1	1170	40.809625528466	8.632e-005
1	1178	40.846817344163	0.00010936
1	1186	40.857221423845	7.992e-005
1	1238	43.347931202845	8.536e-005
1	1246	43.43439555608	0.00010416
1	1254	44.198466919852	8.256e-005
1	1262	44.616179024793	7.288e-005
1	1270	46.114978079535	9.04e-005
1	1278	46.130408988237	7.816e-005
1	1286	47.193620329851	9.568e-005
1	1294	47.575490054975	8.984e-005
1	1313	48.529998960579	9.632e-005
1	1321	48.554445298812	7.16e-005
1	1329	48.658572968638	6.768e-005
1	1337	49.386176372509	7.44e-005
1	1356	50.457478208601	6.952e-005
1	1364	50.594138963636	7.344e-005
1	1372	50.670304558345	6.448e-005
1	1380	50.751695124891	8.136e-005
1	1399	50.829442904721	8.44e-005
1	1429	51.055891917548	7.208e-005
1	1437	51.201515642559	0.00010088
1	1445	52.266223419602	8.536e-005
1	1453	53.253943368945	8.072e-005
1	1483	54.182778856864	0.00010336
1	1513	54.522219954396	7.408e-005
1	1532	55.122093521085	9.64e-005
1	1551	55.264311726922	7.856e-005
1	1559	55.35864700833	7.344e-005
1	1567	55.677630814783	4.36e-005
1	1575	55.784950690302	8.68e-005
1	1583	55.79127951544	7.312e-005
1	1591	55.794801284015	9.4e-005
1	1599	56.106873579394	7.44e-005
1	1607	56.17736684766	9.288e-005
1	1615	56.635947929499	6.776e-005
1	1623	58.531948509362	8.408e-005
1	1631	59.633665269252	9.496e-005
1	1650	60.091420668782	9.312e-005
1	1658	60.120202619585	7.152e-005
1	1666	60.142093498422	9.152e-005
1	1674	60.157235185499	8.512e-005
1	1682	60.16190052551	8.384e-005
1	1690	60.205741708392	9.656e-005
1	1698	60.79791360538	0.00010688
1	1706	61.923133123067	8.856e-005
1	1714	62.232507488581	5.848e-005
1	1733	64.14419198964	9.536e-005
1	1774	67.71178202843	6.896e-005
1	1826	69.590931354289	6.856e-005
1	1845	70.171420305627	8.888e-005
1	1853	70.796083494978	7.256e-005
1	1872	71.310501780564	8.896e-005
1	1902	71.690704505284	0.00010504
1	1910	72.257716852585	8.52e-005
1	1918	72.613781643108	7.088e-005
1	1926	73.058127273559	9.576e-005
1	1934	73.784928606051	9.224e-005
1	1942	73.96410296911	7.296e-005
1	1950	73.985351531199	7.592e-005
1	1958	74.088715833684	8.064e-005
1	1966	74.11599336556	8.16e-005
1	1974	74.216720933304	0.00010984
1	1987	74.249350946013	8.904e-005
1	1990	74.249405537172	9.04e-005
1	1998	74.615331076407	9.224e-005
1	2017	75.400799350717	8.936e-005
1	2036	76.306482361569	9.896e-005
1	2044	76.399388624101	7.008e-005
1	2052	76.544642794217	7.536e-005
1	2060	77.021418327078	4.824e-005
1	2068	77.109507822546	8.544e-005
1	2076	77.4344662319	8.776e-005
1	2106	79.002003895903	7.696e-005
1	2125	80.521944160015	8.48e-005
1	2144	80.761362973598	9.288e-005
1	2152	80.772285064045	8.024e-005
1	2182	81.84625267413	5.664e-005
1	2201	82.552419095536	7.504e-005
1	2220	82.634031398326	7.808e-005
1	2228	82.668888288008	7.28e-005
1	2236	83.475443608003	0.00010024
1	2244	84.366583820658	5.744e-005
1	2252	84.462479819888	8.232e-005
1	2260	84.79959354794	8.112e-005
1	2268	85.150924985728	8.136e-005
1	2276	85.332553244552	8.416e-005
1	2295	85.767738861891	9.336e-005
1	2303	85.933003921903	9.032e-005
1	2311	85.940971516996	7.584e-005
1	2319	86.659870004839	6.6e-005
1	2327	86.727808575468	7.2e-005
1	2335	86.974051701612	9.096e-005
1	2343	87.462300275115	7.4e-005
1	2351	87.526206543074	8.384e-005
1	2381	89.049907276517	9.16e-005
1	2389	90.413638719415	6.8e-005
1	2408	90.867599497041	7.928e-005
1	2427	91.60158367464	8.504e-005
1	2435	91.862693309948	9.176e-005
1	2454	92.722678307253	8.2e-005
1	2462	92.809978290744	8.488e-005
1	2470	93.4309675517	7.224e-005
1	2489	93.824315201068	9.28e-005
1	2508	94.674300297904	7.4e-005
1	2516	94.943102060836	7.272e-005
1	2524	95.012905537425	8.552e-005
1	2554	96.346285284469	0.00010152
1	2562	96.350622301278	7.688e-005
1	2570	96.525769916819	8.488e-005
1	2578	96.559563899495	7.768e-005
1	2586	97.787218455485	7.576e-005
1	2594	98.148165391827	8.056e-005
1	2602	98.210404322831	6.496e-005
1	2621	98.814225234769	8.944e-005
1	2629	99.531637976301	8.68e-005
1	2637	99.532781273481	8.208e-005
1	2645	99.605139678156	8.096e-005
1	2664	100.127756722352	7.272e-005
1	2683	100.873781067058	0.00011808
1	2691	101.296340273896	8.576e-005
1	2710	101.916911038325	8.456e-005
1	2718	102.243728187951	5.664e-005
1	2726	102.271847539666	8.52e-005
1	2734	102.944107249934	9.296e-005
1	2742	103.203280620216	8.424e-005
1	2761	103.439521967908	6.912e-005
1	2769	103.735841457338	6.776e-005
1	2788	104.338921952407	7.792e-005
1	2796	104.379839337495	9.848e-005
1	2826	105.018824980648	6.896e-005
1	2845	105.461662237471	6.28e-005
1	2853	105.531405052129	8.616e-005
1	2872	106.728835970445	9.176e-005
1	2891	107.033395478411	8.416e-005
1	2899	107.078640155809	8.52e-005
1	2907	107.166051727197	8.448e-005
1	2915	107.178884767924	7.32e-005
1	2923	107.252517049962	0.00011384
1	2931	107.614502834868	7.448e-005
1	2939	107.682400176153	7.92e-005
1	2947	108.168135818166	0.00010024
1	2955	108.212809444785	8.608e-005
1	2963	108.511001422839	6.504e-005
1	2971	108.805228510527	7.12e-005
1	2979	109.163164932812	7.528e-005
1	2987	109.372521722225	7.048e-005
1	3006	109.857587926708	6.288e-005
1	3014	110.569778199847	7.376e-005
1	3022	111.728278905832	8.744e-005
1	3030	112.16245230735	9.944e-005
1	3038	112.646975174139	7.088e-005
1	3057	113.793375767849	8.264e-005
1	3076	114.876435775681	7.808e-005
1	3084	115.107590828013	8.72e-005
1	3103	116.047704650039	8.608e-005
1	3111	116.095831861567	9.384e-005
1	3119	116.604932705046	0.00010272
1	3138	117.681197467856	7.288e-005
1	3146	117.759949092137	8.376e-005
1	3165	118.556339346732	8.432e-005
1	3173	118.675435732829	8.784e-005
1	3181	118.935777727964	6.512e-005
1	3189	119.269613556798	6.616e-005
1	3197	119.31675823329	5.808e-005
1	3227	120.146986629152	0.00010056
1	3235	120.200205021844	9.664e-005
1	3265	120.48792772956	8.312e-005
1	3284	121.355828390248	9.024e-005
1	3292	121.553624000564	8.744e-005
1	3300	121.675749596325	7.92e-005
1	3308	121.744147774633	7.448e-005
1	3316	121.801560274354	7.992e-005
1	3335	122.688431192805	9.896e-005
1	3354	123.026114815126	7.456e-005
1	3362	124.10779665308	7.304e-005
1	3370	124.421344120452	7.056e-005
1	3378	124.730729207927	6.056e-005
1	3386	124.818335447992	7.952e-005
1	3394	124.822541267977	7.008e-005
1	3402	125.070568276181	8.4e-005
1	3410	125.250411601101	7.104e-005
1	3429	125.875231595292	6.552e-005
1	3448	125.944664512117	8.312e-005
1	3456	126.62091949781	8.712e-005
1	3464	126.783626404261	8.272e-005
1	3472	126.939482425054	6.56e-005
1	3491	127.145440421753	7.296e-005
1	3499	127.198009644776	9.304e-005
1	3507	127.5220829086	7.088e-005
1	3515	127.670742651387	8.032e-005
1	3523	128.10137953954	7.384e-005
1	3531	128.287415247462	7.152e-005
1	3539	128.417329421687	7.88e-005
1	3547	129.500271232677	0.0001012
1	3588	131.013963528578	8.64e-005
1	3596	131.099584236635	9.52e-005
1	3604	131.487662769162	7.104e-005
1	3612	131.710702872053	8.768e-005
1	3620	131.908588959189	7.104e-005
1	3639	132.453187332588	5.456e-005
1	3647	132.53735948258	8.448e-005
1	3677	133.632744326974	7.632e-005
1	3685	133.691637143776	8.488e-005
1	3693	133.79738497981	9.68e-005
1	3701	134.018517227478	8.744e-005
1	3720	134.641930452574	8.976e-005
1	3728	135.050293769092	9e-005
1	3736	135.352907171298	8.384e-005
1	3766	135.538457881123	6.056e-005
1	3774	136.418900431962	8e-005
1	3782	137.17292069413	8.64e-005
1	3801	139.122107031786	5.72e-005
1	3809	139.378794389342	8.264e-005
1	3817	139.552477333658	8.488e-005
1	3825	139.63969793852	7.52e-005
1	3844	140.2453913423	6.656e-005
1	3852	140.554137490976	8.12e-005
1	3860	140.688233492467	8.064e-005
1	3868	140.793222651166	7.44e-005
1	3887	141.284109159538	8.504e-005
1	3895	141.753188410358	9.624e-005
1	3903	142.568785323731	7.24e-005
1	3933	143.185992139381	0.00010728
1	3941	143.22758157756	7.168e-005
1	3949	143.762535493434	9.744e-005
1	3957	144.008554040688	8.08e-005
1	3976	144.39300560878	0.00010352
1	3984	144.707175932883	8.544e-005
1	4014	146.500469243943	6.512e-005
1	4022	146.851598233487	8.096e-005
1	4041	147.172444259841	9.672e-005
1	4049	147.276671140073	7.52e-005
1	4057	147.75470918926	8.136e-005
1	4065	147.998652153583	7.904e-005
1	4084	148.466230983743	9.84e-005
1	4092	148.486936506331	8.52e-005
1	4100	148.804336388503	8.656e-005
1	4108	149.42053179175	8.872e-005
1	4116	149.66530921628	7.648e-005
1	4124	150.058357428191	8.368e-005
1	4154	152.007160628158	8.784e-005
1	4162	152.732777096777	8.72e-005
1	4181	153.094670653843	7.456e-005
1	4189	153.179201117425	7.608e-005
1	4208	154.079912595316	9.688e-005
1	4227	154.98298814272	9.952e-005
1	4235	155.305797547635	8.488e-005
1	4243	155.3255238547	7.944e-005
1	4262	156.10253709387	7.712e-005
1	4270	156.55807982986	6.872e-005
1	4278	157.39432403381	5.272e-005
1	4308	158.178897538996	5.736e-005
1	4327	158.290426396256	9.256e-005
1	4346	159.178190432994	7.448e-005
1	4376	160.020946452578	8.408e-005
1	4384	160.828800942112	8.84e-005
1	4392	160.95340925725	8.4e-005
1	4400	160.98248678859	5.752e-005
1	4408	161.337547070198	7.824e-005
1	4416	161.818235679413	6.408e-005
1	4424	161.932982540302	8.4e-005
1	4443	163.683397770005	9.096e-005
1	4462	164.1036432055	7.024e-005
1	4470	164.379191468225	9.248e-005
1	4478	164.562819543695	7.072e-005
1	4486	164.673062778002	0.00011656
1	4494	166.081943085487	7.488e-005
1	4502	166.130848299189	9.184e-005
1	4521	166.474587967899	7.736e-005
1	4540	166.68867237116	8.24e-005
1	4548	166.692059148284	8.336e-005
1	4567	166.989161143236	8.232e-005
1	4575	167.211708814969	0.0001024
1	4594	167.270341771058	7.944e-005
1	4602	167.302728391056	6.4e-005
1	4610	167.587671476914	8.816e-005
1	4618	167.672229878151	7.512e-005
1	4626	168.477741855779	7.96e-005
1	4645	168.547876880912	7.632e-005
1	4653	168.634331619416	7.792e-005
1	4661	168.831369752535	7.192e-005
1	4669	168.981521693439	9.264e-005
1	4699	170.147946762922	8.4e-005
1	4707	171.358479159131	8.992e-005
1	4715	171.413182601634	8.64e-005
1	4723	171.846772149845	7.336e-005
1	4742	171.949811368819	7.168e-005
1	4750	172.072734906639	9.976e-005
1	4758	172.265666736177	9.136e-005
1	4766	172.758287339156	8.752e-005
1	4796	174.723462194715	8.232e-005
1	4804	175.568041918398	4.776e-005
1	4812	175.651850034941	7.512e-005
1	4831	175.77865876171	8.76e-005
1	4839	175.794325667446	9.52e-005
1	4847	175.942307773288	7.136e-005
1	4866	177.270510608698	9.4e-005
1	4874	178.060557352595	5.488e-005
1	4882	178.069158262739	7.344e-005
1	4901	179.001872581428	0.00010024
1	4920	179.773083401733	7.424e-005
1	4939	180.894804316249	5.168e-005
1	4958	181.029463358215	8.976e-005
1	4966	181.074307732022	7.168e-005
1	4974	181.215125406694	8.048e-005
1	4982	181.304664898876	8.272e-005
1	4990	181.651191588291	8.208e-005
1	4998	181.85139549725	5.864e-005
1	5017	182.386331760487	8.968e-005
1	5025	182.657424568443	8.472e-005
1	5055	184.46639474911	0.00010328
1	5063	184.731717200804	9.288e-005
1	5082	184.896332940184	7.768e-005
1	5090	184.975152786123	6.712e-005
1	5098	185.134152085899	9.064e-005
1	5106	185.166564805122	7.408e-005
1	5114	185.331830036724	7.896e-005
1	5122	185.494784235603	0.0001056
1	5141	186.484191229379	8.736e-005
1	5149	186.681148130742	7.616e-005
1	5157	186.710267883034	7.168e-005
1	5165	186.919728808408	7.48e-005
1	5173	186.931871215751	9.712e-005
1	5192	187.285238567505	8.544e-005
1	5200	187.483040804334	8.344e-005
1	5208	187.592597478174	8.072e-005
1	5216	187.799732728695	9.704e-005
1	5235	188.432456285318	0.00010024
1	5243	188.545662999843	7.184e-005
1	5251	189.902466961188	6.216e-005
1	5259	189.929978869046	0.00011056
1	5267	189.987367152829	7.208e-005
1	5275	190.398688790211	0.00012
1	5283	190.560290207192	8.608e-005
1	5302	191.107838706406	7.44e-005
1	5310	191.405686771757	7.112e-005
1	5318	191.420317423359	7.496e-005
1	5326	191.557084657131	9.864e-005
1	5334	191.590571467969	7.2e-005
1	5342	191.632927518283	9.112e-005
1	5372	192.251459862851	8.92e-005
1	5380	192.349307753574	7.928e-005
1	5399	192.520229498768	5.36e-005
1	5407	192.902509824008	9.28e-005
1	5426	193.463913726063	9.32e-005
1	5434	194.104614233295	8.688e-005
1	5442	194.271935998397	8.24e-005
1	5450	195.286677820869	8.32e-005
1	5469	195.769304883079	8.48e-005
1	5477	195.842579031386	8.376e-005
1	5496	196.292163199249	9e-005
1	5504	196.829066301124	9.08e-005
1	5545	197.851102975499	0.00010304
1	5564	198.908254194502	8.616e-005
1	5572	199.604353080286	7.8e-005
1	5580	199.773295584031	9.4e-005
1	5588	199.904374122504	8.224e-005
1	5596	200.096775841182	7.584e-005
1	5604	200.280738457532	6.936e-005
1	5612	200.353367282131	8.24e-005
1	5620	200.459037250253	8.584e-005
1	5628	201.053886401149	6.952e-005
1	5658	202.480736223725	7.84e-005
1	5666	203.043072566935	6.312e-005
1	5696	204.422349507379	9.384e-005
1	5704	204.501477229474	6.2e-005
1	5712	205.436906770405	6.664e-005
1	5742	206.644626867992	7.896e-005
1	5761	206.949829910469	6.696e-005
1	5769	207.022643466016	8.648e-005
1	5788	207.515171288048	6.36e-005
1	5807	208.572580673186	7.904e-005
1	5815	209.746808865612	0.00010112
1	5823	210.007888198175	9.816e-005
1	5831	210.205436344766	8.432e-005
1	5839	210.382769423226	8.968e-005
1	5847	210.550564471243	5.512e-005
1	5855	211.123211461973	8.304e-005
1	5863	211.222748471132	8.744e-005
1	5871	212.244007867974	7.84e-005
1	5879	212.497432900314	9.744e-005
1	5898	212.665809136298	7.696e-005
1	5906	212.747132961377	7.096e-005
1	5947	213.949543417686	8.744e-005
1	5955	214.007682540271	7.584e-005
1	5963	214.279233013151	7.624e-005
1	5982	215.663346567387	7.432e-005
1	5990	215.787130863457	8.656e-005
1	5998	216.593291952947	9.6e-005
1	6006	216.76534978335	6.584e-005
1	6014	216.998027252533	8.8e-005
1	6022	216.998842044884	9.04e-005
1	6030	217.294256708939	0.00010312
1	6071	219.850553824115	8.432e-005
1	6079	220.505645780019	6.864e-005
1	6087	221.085968032345	7.04e-005
1	6106	221.212725895928	8.648e-005
1	6136	221.610657710259	8.456e-005
1	6144	222.293607508974	0.00012
1	6152	222.306582183675	6.784e-005
1	6171	223.168698410748	7.72e-005
1	6179	224.050415783296	6.608e-005
1	6187	224.239935616402	7.304e-005
1	6206	224.649111214269	6.408e-005
1	6225	225.191643450616	8.944e-005
1	6244	225.485678473343	9.36e-005
1	6252	226.152563461118	8.224e-005
1	6260	226.56044492073	7.832e-005
1	6268	226.6775787334	8.072e-005
1	6276	226.809491932288	6.456e-005
1	6295	227.616000566723	7.456e-005
1	6303	227.698530406119	8.504e-005
1	6311	227.787977086577	6.28e-005
1	6341	228.992538681957	8.288e-005
1	6349	229.080753050782	6.864e-005
1	6357	229.142645716867	9.96e-005
1	6365	230.050495845403	8.48e-005
1	6373	230.12747668397	5.544e-005
1	6381	231.023666554793	7.688e-005
1	6400	231.562390269866	6.888e-005
1	6419	232.025029498987	9.016e-005
1	6427	232.336727576628	6.904e-005
1	6435	232.800929880489	7.392e-005
1	6443	233.041281950701	7.464e-005
1	6473	233.430715518528	8.16e-005
1	6481	233.485032491455	9.824e-005
1	6489	233.844498648861	0.00010608
1	6508	234.413838285245	8.328e-005
1	6527	234.599307544415	7.928e-005
1	6535	234.756682462162	8.976e-005
1	6543	235.148498263985	9.2e-005
1	6551	235.287394850896	7.28e-005
1	6559	235.334919839326	6.448e-005
1	6567	236.081849394169	8.512e-005
1	6575	236.317824289795	8.872e-005
1	6583	236.337723283963	9.552e-005
1	6602	236.701114364467	7.28e-005
1	6610	236.722036354569	9.072e-005
1	6618	237.146174486256	9.608e-005
1	6637	237.62249781024	8.072e-005
1	6645	237.898121903149	9.016e-005
1	6653	237.907021191913	6.528e-005
1	6661	238.186299336455	7.736e-005
1	6669	238.944714153092	9.192e-005
1	6677	238.946791459333	8.816e-005
1	6685	238.992767376133	9.376e-005
1	6693	239.101876428509	7.88e-005
1	6701	239.725538032986	7.176e-005
1	6709	239.877195786717	0.00010504
1	6717	241.144808199324	9.736e-005
1	6725	241.441698925993	6.848e-005
1	6755	241.736983398845	8.144e-005
1	6774	242.17771509697	7.288e-005
1	6782	242.345290662019	6.36e-005
1	6801	242.761545642043	6.448e-005
1	6809	243.164784804529	9.832e-005
1	6839	244.756218581383	9.864e-005
1	6847	245.076071148872	0.0001008
1	6855	245.115160735042	8.032e-005
1	6874	245.460767375031	7.608e-005
1	6882	245.700935836169	7.864e-005
1	6890	245.943209795145	8.032e-005
1	6909	246.257026206963	8.696e-005
1	6917	246.604585116101	8.128e-005
1	6925	246.923929555445	7.536e-005
1	6933	247.046039840149	7.84e-005
1	6952	247.322529481038	8.176e-005
1	6960	247.537246016927	6.856e-005
1	6979	247.710873383764	7.288e-005
1	6987	248.205133938628	8.736e-005
1	6995	248.212493106606	5.072e-005
1	7003	248.623968462385	7.56e-005
1	7011	249.921306205229	8.528e-005
1	7019	250.754505368379	9.704e-005
1	7027	250.830064300805	7.968e-005
1	7035	251.67112032126	7.768e-005
1	7054	252.180392914521	8.288e-005
1	7062	252.254490526721	8.328e-005
1	7070	252.258680736124	8.768e-005
1	7078	252.287573775703	0.00010904
1	7086	252.412558852165	9.464e-005
1	7105	252.99833295438	9.584e-005
1	7113	253.393041273087	6.928e-005
1	7132	253.602779680072	9.376e-005
1	7140	253.72595147582	9.296e-005
1	7159	254.112280556643	6.376e-005
1	7167	254.144256027747	8.232e-005
1	7175	254.374539525685	9.296e-005
1	7205	254.66408548515	8.344e-005
1	7213	254.743639696844	9.8e-005
1	7221	254.912217157419	6.848e-005
1	7229	255.279636042907	9.768e-005
1	7259	256.553118472235	7.024e-005
1	7267	256.659902672841	7.36e-005
1	7275	256.672586120175	8.768e-005
1	7283	256.76686682836	7.624e-005
1	7291	256.788173082295	0.0001036
1	7299	257.148347841857	6.776e-005
1	7307	257.203545017753	6.648e-005
1	7337	258.765126009921	6.392e-005
1	7356	259.342794921896	7.832e-005
1	7364	259.544911637608	6.8e-005
1	7383	260.052955604449	8.176e-005
1	7391	260.155701474626	0.0001024
1	7399	260.493315411975	9.128e-005
1	7407	261.583000468313	7.312e-005
1	7415	261.646255143014	9.216e-005
1	7423	261.703950603374	8.488e-005
1	7431	261.925099305427	5.52e-005
1	7439	262.197218825696	8.728e-005
1	7447	262.361208908491	7.368e-005
1	7455	262.791841075053	9.728e-005
1	7463	262.807768907653	8.304e-005
1	7471	263.536225208253	7.88e-005
1	7479	263.611656179853	7.592e-005
1	7498	264.382325582085	5.792e-005
1	7517	265.327795379449	7.68e-005
1	7547	266.174219960473	0.00010864
1	7555	266.636845392271	9.056e-005
1	7563	266.760014676088	8.232e-005
1	7571	266.761588409768	9.536e-005
1	7579	267.617680442527	7.888e-005
1	7598	267.844489578084	8.672e-005
1	7617	268.603579189677	6.568e-005
1	7625	268.651050835057	8.472e-005
1	7633	268.94297416376	8.016e-005
1	7641	269.212977779033	9.616e-005
1	7649	269.260187089554	8.008e-005
1	7668	271.57809278366	6.992e-005
1	7687	272.040584585028	5.48e-005
1	7706	272.674368262841	6.984e-005
1	7714	272.865674292645	7.272e-005
1	7722	273.016900095355	8.368e-005
1	7730	273.379801966499	0.00010064
1	7738	273.472219367205	5.768e-005
1	7757	274.292597009036	6.792e-005
1	7776	274.348955529087	9.064e-005
1	7784	275.057430483244	6.416e-005
1	7792	275.087513160988	0.00010144
1	7811	275.575920016063	7.384e-005
1	7819	276.117060107697	8.6e-005
1	7827	276.13982647418	7.056e-005
1	7835	276.63499450131	7.856e-005
1	7843	276.64154104572	8.04e-005
1	7851	276.7381410794	7.232e-005
1	7859	277.113562224676	6.72e-005
1	7867	277.204553128196	5.952e-005
1	7919	279.759659143785	0.00010312
1	7927	280.279452766626	7.792e-005
1	7935	280.592027407055	6.248e-005
1	7943	280.658203539893	8.712e-005
1	7951	280.679474998496	9.736e-005
1	7959	280.709931213582	7.536e-005
1	7978	281.446875897503	9.44e-005
1	7986	281.70985372009	7.84e-005
1	8005	282.08545192876	7.2e-005
1	8013	282.393006510359	8.36e-005
1	8043	282.807805824443	8.104e-005
1	8051	282.995847119368	7.864e-005
1	8059	283.027166642851	8.472e-005
1	8067	283.228008859199	8.184e-005
1	8075	283.598551587356	8.44e-005
1	8083	283.717990140919	8.12e-005
1	8091	284.474930824523	6.728e-005
1	8099	284.587849017308	8.288e-005
1	8107	284.788333728313	9.344e-005
1	8115	285.02683224594	7.616e-005
1	8123	285.697442676811	5.984e-005
1	8131	286.6943872386	7.312e-005
1	8150	287.269694241067	6.416e-005
1	8158	287.335000334842	9.048e-005
1	8166	288.107353518782	9.84e-005
1	8185	289.904427976528	7.832e-005
1	8204	290.378264409867	7.936e-005
1	8212	290.415233078454	0.00010176
1	8220	290.879314924503	8.504e-005
1	8228	291.307383276594	6.4e-005
1	8236	291.316094947119	6.912e-005
1	8244	291.955446310706	8.76e-005
1	8263	294.001651651038	7.488e-005
1	8282	294.134776618038	9.912e-005
1	8301	296.025814006264	8.584e-005
1	8309	296.044793633653	6.336e-005
1	8328	296.476599139214	6.976e-005
1	8336	297.074044726655	9.112e-005
1	8344	297.158789736517	8.896e-005
1	8352	297.821742377032	9.28e-005
1	8371	298.206049276289	8.144e-005
1	8401	299.935715342429	0.00010128
1	8420	300.768211512196	7.824e-005
1	8428	300.805917549162	9.184e-005
1	8436	301.065108856616	7.2e-005
1	8444	301.233680276358	8.48e-005
1	8452	301.883017481242	7.6e-005
1	8460	301.953172336263	7.84e-005
1	8468	302.354944863987	6.728e-005
1	8476	302.668457761454	8.032e-005
1	8484	302.779887833103	8.832e-005
1	8514	303.652491250645	8.904e-005
1	8522	304.198744320593	5.752e-005
1	8541	304.718022339906	9.496e-005
1	8549	304.914680462805	8.168e-005
1	8557	304.939515636956	7.44e-005
1	8576	305.191598742257	8.288e-005
1	8595	305.334995742028	6.216e-005
1	8603	305.596576097489	8.896e-005
1	8611	305.656932293515	7.656e-005
1	8619	306.167378429401	8.52e-005
1	8627	306.214051456392	8.84e-005
1	8635	306.29901839094	9.088e-005
1	8643	306.572769417964	0.00011568
1	8651	306.592434256791	6.992e-005
1	8670	306.943601167385	7.456e-005
1	8678	306.990721862784	0.00010632
1	8686	307.130327844288	0.00010464
1	8694	307.30643689993	9.432e-005
1	8702	307.757593262328	7.816e-005
1	8743	309.37425127909	9.528e-005
1	8751	309.464752774398	7.288e-005
1	8759	309.572846418182	0.00010032
1	8767	309.649339736995	8.432e-005
1	8786	310.065728510669	5.488e-005
1	8794	310.21735552653	5.976e-005
1	8802	310.376840040718	6.872e-005
1	8810	310.564135300741	5.768e-005
1	8818	310.633513549784	5.864e-005
1	8826	310.653276528572	8.752e-005
1	8845	310.974932929942	7.664e-005
1	8864	311.167669299263	7.072e-005
1	8872	311.241198890614	7.448e-005
1	8880	311.421310159173	7.192e-005
1	8888	311.510032701294	9.6e-005
1	8896	311.704386115164	8.528e-005
1	8904	311.821380189137	7.16e-005
1	8912	312.008249735065	7.336e-005
1	8920	312.172578620317	9.44e-005
1	8928	312.470997130212	9.192e-005
1	8936	312.552276988622	8.816e-005
1	8944	312.750677636656	7.608e-005
1	8952	312.844583122535	0.00010032
1	8960	312.990338143397	8.472e-005
1	8968	313.087305535869	0.00010184
1	8976	313.775702212841	5.064e-005
1	8984	314.554096004995	7.488e-005
1	8992	315.41027338054	7.08e-005
1	9000	315.587501212025	7.968e-005
1	9008	315.738739425023	6.64e-005
1	9027	316.810893447005	5.384e-005
1	9035	317.317207937327	8.416e-005
1	9043	317.337081819833	6.84e-005
1	9062	317.699511297764	0.00010592
1	9081	317.971955396342	8.384e-005
1	9089	318.554569805872	8.248e-005
1	9119	318.967338476065	6.8e-005
1	9138	319.775216843859	7.344e-005
1	9146	319.917900873284	8.96e-005
1	9154	319.923460296508	8.248e-005
1	9162	319.982322324622	8.76e-005
1	9181	320.916129454556	8.008e-005
1	9200	321.127463659265	8.344e-005
1	9208	321.237117222061	7.672e-005
1	9227	321.475699265264	6.688e-005
1	9235	321.851157974411	7.712e-005
1	9243	322.147368189981	7.24e-005
1	9251	322.255194416514	7.68e-005
1	9259	322.318099855638	8.512e-005
1	9267	323.334148276476	7.952e-005
1	9275	323.468501821628	8.352e-005
1	9294	323.839183171187	8e-005
1	9313	324.501686878146	7.768e-005
1	9321	324.502604626157	7.768e-005
1	9329	324.505648492172	8.024e-005
1	9337	324.597041340967	8.752e-005
1	9345	325.082841185614	9.552e-005
1	9353	325.222890875207	8.032e-005
1	9361	326.101616428209	8.376e-005
1	9369	326.241045122165	9.664e-005
1	9377	326.506098550066	8.928e-005
1	9396	326.689330098546	8.616e-005
1	9404	326.698884671046	8.128e-005
1	9412	327.338362086784	8.952e-005
1	9420	327.339683955437	9.424e-005
1	9439	327.642691198617	9.512e-005
1	9447	328.22687212481	8.664e-005
1	9455	328.34259864719	7.76e-005
1	9463	328.903366492305	7.664e-005
1	9471	330.152858797027	8.464e-005
1	9490	330.808506426084	8.112e-005
1	9520	332.088031717579	7.344e-005
1	9550	332.993827310453	0.00010032
1	9558	333.225560443464	8.344e-005
1	9577	333.875043636009	8.984e-005
1	9585	333.908594835569	7.976e-005
1	9593	333.943825470064	8.448e-005
1	9601	333.956794625246	8.536e-005
1	9609	333.970001567119	9.464e-005
1	9617	334.528463484552	0.00010408
1	9625	334.88652145681	7.288e-005
1	9633	334.994181458253	9.216e-005
1	9641	335.596317048518	6.632e-005
1	9671	336.946176624001	8.56e-005
1	9690	337.427191911967	0.00010104
1	9698	337.735412460656	0.0001024
1	9706	337.78401924226	7.632e-005
1	9714	338.132446979114	8.944e-005
1	9722	338.765997589354	9.136e-005
1	9730	339.340918619583	8.112e-005
1	9749	339.709667841268	9.48e-005
1	9757	340.078453837597	7.904e-005
1	9765	340.537257518586	8.24e-005
1	9773	340.603864023272	6.216e-005
1	9781	341.364931069371	5.808e-005
1	9800	341.842108949535	8.24e-005
1	9808	341.843190142485	8.048e-005
1	9816	342.206466113746	8.744e-005
1	9824	342.230137229822	7.648e-005
1	9843	342.348853494541	6.936e-005
1	9851	342.58330979395	8.264e-005
1	9859	342.918758206185	8.48e-005
1	9867	343.008400559089	8.648e-005
1	9897	343.672083493919	0.00010216
1	9905	343.768119283481	7.192e-005
1	9924	344.155655288572	8.056e-005
1	9943	344.315186050309	7.528e-005
1	9951	344.378685400084	7.888e-005
1	9970	344.831552504426	7.72e-005
1	9978	344.884887178556	8.056e-005
1	9986	345.74098339935	9.256e-005
1	9994	345.824580662214	6.648e-005
1	10002	345.980890480511	8.48e-005
1	10010	346.223188871925	8.184e-005
1	10018	346.307319412501	0.0001008
1	10026	346.591580502414	0.00010648
1	10045	347.562525573782	6.976e-005
1	10053	348.028687517775	0.00010176
1	10061	348.226936547639	6.496e-005
1	10069	348.25704714763	7.56e-005
1	10077	348.299984947048	7.672e-005
1	10085	348.602293205825	8.216e-005
1	10104	349.669841332023	8.6e-005
1	10112	349.810700903339	8.576e-005
1	10131	351.336304448213	6.328e-005
1	10161	351.81705938543	8.072e-005
1	10169	352.127784122401	5.92e-005
1	10177	353.862980744963	7.488e-005
1	10185	354.158739569332	8.44e-005
1	10193	354.64067687225	8.072e-005
1	10201	354.890125059145	8.112e-005
1	10220	355.347059484989	7.64e-005
1	10250	356.43499818968	9.512e-005
1	10258	356.449449989235	8.12e-005
1	10266	356.621256331222	7.96e-005
1	10296	357.804251725473	0.00010768
1	10304	358.640767751732	9.432e-005
1	10312	359.046672965256	0.00010592
1	10320	359.760122432174	9.024e-005
1	10339	360.0319889657	6e-005
1	10347	360.035266370723	7.704e-005
1	10377	360.899791210222	7.544e-005
1	10385	361.142444134621	8.944e-005
1	10393	361.369819139479	9.624e-005
1	10412	361.45529475663	7.272e-005
1	10431	361.958933286291	6.072e-005
1	10450	363.24244298668	7.984e-005
1	10458	363.497595424389	7.176e-005
1	10466	363.554425388332	7.84e-005
1	10474	364.630761163779	8.144e-005
1	10482	364.886175658824	9.232e-005
1	10490	366.083986897307	8.192e-005
1	10498	366.089025018443	7.728e-005
1	10506	366.221395876916	6.872e-005
1	10514	366.8943364145	7.536e-005
1	10522	366.914897411916	6.848e-005
1	10530	367.028376155066	0.00011008
1	10560	368.223320242009	8.096e-005
1	10568	368.476986087874	8.48e-005
1	10576	368.782796743414	6.688e-005
1	10584	368.841365778169	9.184e-005
1	10592	369.246452409671	7.616e-005
1	10600	369.28897226389	7.328e-005
1	10608	369.501396429164	8.992e-005
1	10616	369.806109849186	7.272e-005
1	10624	370.415938140706	7.816e-005
1	10632	370.496953991784	9.064e-005
1	10651	370.704225324494	0.00010152
1	10659	370.766122815711	0.00010264
1	10667	371.112681991488	8.976e-005
1	10675	371.158830846999	0.00011792
1	10694	371.387705244806	8.192e-005
1	10713	372.62558383756	8.408e-005
1	10754	373.080524781981	8.656e-005
1	10773	373.486633142747	7.752e-005
1	10781	373.53180488371	8.112e-005
1	10789	373.616872822633	7.728e-005
1	10797	373.66517301233	7.52e-005
1	10805	373.858950353474	9.648e-005
1	10813	373.885203171305	8.224e-005
1	10821	374.918754059379	6.712e-005
1	10829	375.538267831843	6.856e-005
1	10837	376.03876598874	5.552e-005
1	10856	376.372333257732	7.904e-005
1	10864	376.787168057639	8.016e-005
1	10872	377.003951292624	6.848e-005
1	10902	377.412284668474	6.976e-005
1	10910	377.96258482641	5.992e-005
1	10918	378.161974280141	5.112e-005
1	10926	378.199549761402	9.896e-005
1	10945	379.470070113077	0.00010064
1	10953	380.012036003575	9.808e-005
1	10961	380.275373879272	7.688e-005
1	10969	381.099239096724	5.688e-005
1	10977	381.160640206463	8.672e-005
1	10985	381.21901388287	8.848e-005
1	10993	381.895756499932	0.0001076
1	11001	381.951364575198	6.6e-005
1	11009	381.980721137906	9.672e-005
1	11061	383.76420908286	8.24e-005
1	11069	383.797128087344	7.048e-005
1	11077	384.566404532586	7.624e-005
1	11096	384.995542449451	6.48e-005
1	11104	385.61221212423	9.672e-005
1	11134	386.619739941058	5.976e-005
1	11142	386.737355428792	5.92e-005
1	11161	387.763199226658	9.48e-005
1	11180	388.439858587061	8.936e-005
1	11188	388.775391177049	8.736e-005
1	11196	388.803516754034	7.784e-005
1	11204	388.822394727222	6.704e-005
1	11212	388.873325644527	6.224e-005
1	11220	389.470598498668	9.408e-005
1	11228	389.776620000199	8.448e-005
1	11236	390.007367158483	6.696e-005
1	11244	390.290972369987	7.104e-005
1	11252	390.587449962757	8.528e-005
1	11260	390.952906336901	5.584e-005
1	11279	391.099337100916	7.696e-005
1	11287	391.109950868622	9.824e-005
1	11295	391.252414659916	0.00010336
1	11314	391.536744468945	8.104e-005
1	11322	391.922233692578	7.224e-005
1	11330	391.999339459732	9.144e-005
1	11338	392.149866983421	6.68e-005
1	11346	392.237262291487	9.36e-005
1	11354	392.328825098067	7.048e-005
1	11362	392.532242640132	7.512e-005
1	11370	392.920407386853	4.976e-005
1	11422	393.888809663704	9.48e-005
1	11430	393.972157983283	0.0001056
1	11438	394.528726913036	7.016e-005
1	11446	394.5603099088	0.00010056
1	11454	394.615973529992	9.424e-005
1	11462	395.114173104583	9.2e-005
1	11470	395.934099113423	8.832e-005
1	11489	396.622140523246	7.8e-005
1	11497	397.371619763796	8.688e-005
1	11505	397.469626634948	8.088e-005
1	11513	397.51330471462	7.864e-005
1	11521	397.524824542772	9.28e-005
1	11529	397.681755126129	6.232e-005
1	11548	397.857284382363	0.00010192
1	11556	397.883129729636	0.0001044
1	11575	398.408342465056	7.072e-005
1	11594	398.754436581168	8.136e-005
1	11602	399.143177280181	7.592e-005
1	11610	399.875921613132	9.416e-005
1	11618	400.048322885058	6.968e-005
1	11626	400.1610035975	7.232e-005
1	11634	400.180282683891	9.688e-005
1	11642	400.87156482732	8.504e-005
1	11661	402.076633197484	9.52e-005
1	11669	402.274305347	7.48e-005
1	11677	402.305987093419	7.712e-005
1	11696	403.107667101778	8.032e-005
1	11704	403.300141987959	8.952e-005
1	11712	403.685091876769	8.152e-005
1	11720	403.698608137282	7.68e-005
1	11728	403.882336024137	5.096e-005
1	11769	405.61807096701	8.832e-005
1	11777	405.904624714179	9.712e-005
1	11785	406.005572357539	7.432e-005
1	11804	406.445166804719	7.024e-005
1	11812	406.748551098104	8.4e-005
1	11820	407.079904194375	9.2e-005
1	11828	407.383121521771	6.696e-005
1	11836	407.806093950234	9.232e-005
1	11844	408.098282301664	9e-005
1	11852	408.629812499887	9.776e-005
1	11860	408.862922757429	0.0001
1	11868	409.367524062795	8.848e-005
1	11909	410.973568278261	7.68e-005
1	11917	411.154977600272	0.00010216
1	11925	411.480600373118	7.664e-005
1	11944	411.835288436023	8.944e-005
1	11952	412.119958721213	9.816e-005
1	11960	412.483341030262	8.88e-005
1	11968	412.678739550437	7.904e-005
1	11976	413.098386064859	8.464e-005
1	11984	413.174075610558	8.112e-005
1	12003	414.036326226849	6.176e-005
1	12011	414.363180338489	0.0001012
1	12019	414.481032965504	7.92e-005
1	12027	415.201292642688	6.344e-005
1	12035	415.436606342342	0.00010616
1	12043	415.491135102052	9.728e-005
1	12051	415.573939617313	8.424e-005
1	12059	415.880824268745	7.368e-005
1	12067	416.612111390637	9.48e-005
1	12075	416.781838461296	0.00010672
1	12105	417.637450819351	7.232e-005
1	12113	417.777586634553	0.00011256
1	12143	418.545062325226	9e-005
1	12151	419.230132348059	0.0001024
1	12170	419.441373366666	7.656e-005
1	12189	420.505805960912	6.288e-005
1	12208	421.108746870369	8.968e-005
1	12216	421.334448167751	8.144e-005
1	12224	421.470081012858	9.392e-005
1	12243	422.003591676215	8.696e-005
1	12262	422.239481643131	9.224e-005
1	12270	422.336442534918	7.16e-005
1	12289	422.79241862693	9.312e-005
1	12297	422.858336598351	7.112e-005
1	12305	423.190782659423	6.72e-005
1	12313	423.354653719435	6.816e-005
1	12321	423.953233207068	9.896e-005
1	12340	424.03314466609	7.84e-005
1	12348	424.137603939554	8.784e-005
1	12356	424.48843825918	9.048e-005
1	12375	424.82142038898	9.192e-005
1	12383	425.454204299079	7.344e-005
1	12391	425.659336985771	7.936e-005
1	12399	425.738182003325	8.48e-005
1	12407	426.114694706426	9.04e-005
1	12415	426.13570390461	7.936e-005
1	12423	426.251309462781	6.088e-005
1	12431	426.285612158963	8.28e-005
1	12439	426.290598574588	8.632e-005
1	12447	426.558215083083	7.832e-005
1	12455	426.688090165235	7.28e-005
1	12463	427.052388055801	7.096e-005
1	12471	427.2616890961	8.736e-005
1	12479	427.625778012714	7.8e-005
1	12487	427.831859343706	8.6e-005
1	12495	427.962887579772	7.296e-005
1	12503	428.090851191333	7.184e-005
1	12511	428.819018161658	8.24e-005
1	12519	428.891985379954	4.944e-005
1	12527	429.009553380235	7.792e-005
1	12535	429.073184811749	8.144e-005
1	12554	429.844724798965	0.00010296
1	12595	430.247771824904	0.00010824
1	12603	430.489694672716	7.328e-005
1	12611	430.524111651699	9.672e-005
1	12619	430.985555608865	7.32e-005
1	12627	431.281362057459	8.712e-005
1	12646	432.347496583125	7.784e-005
1	12665	432.73456836708	8.736e-005
1	12673	432.82798243815	9.752e-005
1	12681	433.411662961693	7.912e-005
1	12689	433.422020513904	7.464e-005
1	12697	434.012118445932	8.32e-005
1	12727	434.966532103222	9.016e-005
1	12735	435.525063854534	9.016e-005
1	12743	435.861628344486	9.008e-005
1	12751	435.893988716719	8.784e-005
1	12759	436.030187922793	8.656e-005
1	12767	436.205526083715	8.752e-005
1	12775	436.209458558016	9.96e-005
1	12805	438.109271868448	6.848e-005
1	12824	440.027798933965	8.256e-005
1	12832	440.339400701538	7.728e-005
1	12840	440.835426046431	9.16e-005
1	12848	441.022497925157	0.00010112
1	12856	441.374535016048	9.008e-005
1	12886	442.429125811546	8.464e-005
1	12905	442.98428581551	7.968e-005
1	12913	443.236671234084	8.896e-005
1	12932	444.034221563638	9.136e-005
1	12940	444.240767178243	8.568e-005
1	12948	444.549970377818	8.168e-005
1	12967	445.382012867334	0.00011616
1	12975	445.652152037741	7.504e-005
1	12983	445.820477581818	6.208e-005
1	12991	446.112176064075	7.6e-005
1	12999	446.604703634483	8.088e-005
1	13018	447.934236227923	6.08e-005
1	13026	449.161316630748	8.592e-005
1	13034	449.907397107155	6.984e-005
1	13042	450.075006664115	6.048e-005
1	13050	450.103349281379	7.88e-005
1	13080	451.122959130009	7.088e-005
1	13099	453.29684548031	9.888e-005
1	13140	455.510018825304	0.00012
1	13181	457.080259315711	7.696e-005
1	13189	457.112100445816	8.856e-005
1	13208	458.468912835685	6.584e-005
1	13216	459.010048361021	8.168e-005
1	13224	459.034371234705	8.64e-005
1	13232	459.155386411053	5.216e-005
1	13240	459.252473023143	9.632e-005
1	13248	459.432304974646	7.584e-005
1	13256	459.976699918924	9.496e-005
1	13264	460.573863975889	7.544e-005
1	13283	461.2919754244	9.016e-005
1	13302	461.435541875131	5.288e-005
1	13310	461.610031901891	6.912e-005
1	13318	462.196846158267	8.224e-005
1	13326	462.211649228405	7.072e-005
1	13334	462.269208847174	7.248e-005
1	13342	462.338509521394	8.752e-005
1	13350	462.684431148392	7.576e-005
1	13358	463.465749361384	6.88e-005
1	13377	464.063665625042	7.76e-005
1	13396	464.346018793458	7.024e-005
1	13415	464.919673911903	8.08e-005
1	13423	464.938017938666	7.896e-005
1	13431	464.944536734096	0.0001036
1	13439	464.99129654481	0.0001076
1	13447	465.663355506063	8.976e-005
1	13477	466.27707096867	7.44e-005
1	13485	466.299633866349	8.32e-005
1	13493	466.350947490264	6.856e-005
1	13512	466.528617058347	6.824e-005
1	13531	466.72247804269	7.76e-005
1	13539	466.723693264552	8.6e-005
1	13547	466.729265603886	9.152e-005
1	13555	467.280072838523	0.00010536
1	13563	467.292359771911	7.536e-005
1	13571	467.383875064198	9.008e-005
1	13579	467.813430774428	9.024e-005
1	13587	468.031939205506	7.016e-005
1	13595	468.303960257697	7.912e-005
1	13603	468.319322604519	7.816e-005
1	13611	468.440738669351	8.24e-005
1	13619	469.5481402129	7.552e-005
1	13627	470.190452726618	8.04e-005
1	13646	471.38654111457	8.84e-005
1	13654	471.528512918629	9.056e-005
1	13673	471.871069024521	9.176e-005
1	13692	472.02551194931	8.712e-005
1	13700	472.100777647704	8.336e-005
1	13719	472.286456159933	8.736e-005
1	13727	472.32897782056	8.776e-005
1	13735	472.356698103242	9.584e-005
1	13754	472.707410777253	7.976e-005
1	13762	472.946594588621	7.24e-005
1	13770	473.269293987429	8.84e-005
1	13778	473.539704989341	7.432e-005
1	13786	474.377675013238	9.76e-005
1	13805	474.831316003105	7.736e-005
1	13813	475.176255138646	7.784e-005
1	13821	475.681480165298	9.2e-005
1	13829	475.694420865776	8.176e-005
1	13837	475.910614558781	7.72e-005
1	13856	476.232832919586	8.128e-005
1	13864	476.490996672798	7.568e-005
1	13872	476.575554475919	9.36e-005
1	13880	476.74803411065	7.84e-005
1	13921	476.963551283647	9.44e-005
1	13929	477.583748524628	7.92e-005
1	13937	478.225895193532	8.176e-005
1	13945	478.484446548081	8.528e-005
1	13953	478.548872515135	6.808e-005
1	13972	478.920784518239	6.712e-005
1	13980	479.061345831959	8.152e-005
1	13988	479.094624994774	0.00011136
1	13996	479.173154833662	9.944e-005
1	14004	479.284750079084	7.96e-005
1	14012	479.999941113401	8.28e-005
1	14020	480.087474263944	5.64e-005
1	14028	480.546477670082	6.776e-005
1	14036	480.578475370887	8.432e-005
1	14044	480.748606402899	9.008e-005
1	14052	480.888418650964	8.76e-005
1	14060	480.993951281735	8.552e-005
1	14068	481.119000306459	9.072e-005
1	14087	482.238440996992	7.224e-005
1	14106	482.550122894932	7.616e-005
1	14114	482.959527402942	8.08e-005
1	14122	483.861017363513	8.568e-005
1	14152	484.806957188988	8.216e-005
1	14160	484.963668125286	8.184e-005
1	14168	485.153544101581	8.76e-005
1	14198	486.110934558478	8.112e-005
1	14206	486.602890778124	7.848e-005
1	14236	487.2626068183	8.28e-005
1	14244	487.438091772354	6.88e-005
1	14252	487.485427148729	6.872e-005
1	14260	487.777940278437	8.984e-005
1	14268	488.260367859619	5.736e-005
1	14276	488.262704397178	8.808e-005
1	14284	488.397635324436	8.744e-005
1	14292	488.510231861881	6.304e-005
1	14322	489.09240427014	5.16e-005
1	14330	489.3325644941	9.752e-005
1	14338	489.751190026444	7.648e-005
1	14346	490.256902371872	8.72e-005
1	14354	490.428664670561	8.288e-005
1	14362	490.630347569802	8.552e-005
1	14370	490.743932247797	7.36e-005
1	14378	492.300914854116	6.672e-005
1	14408	492.581246338049	8.696e-005
1	14416	492.840080102501	7.696e-005
1	14424	492.986333714951	8.176e-005
1	14432	493.600226830629	9.8e-005
1	14440	494.491707133788	7.72e-005
1	14459	495.787003533597	8.136e-005
1	14467	495.88533251692	9.248e-005
1	14475	495.92825707611	9.584e-005
1	14483	496.437966628595	8.232e-005
1	14491	496.438717386847	8.368e-005
1	14510	497.289852030675	8.944e-005
1	14518	497.347651826764	0.00010712
1	14526	497.611255976585	7.296e-005
1	14545	498.437012668599	7.072e-005
1	14575	499.847141762312	9.432e-005
2	109	4.783790896864	4.783790896864
2	141	5.972266710567	1.188475813703
2	211	8.030402038813	2.058135328246
2	246	9.556150281671	1.525748242858
2	270	10.139554100981	0.58340381931
2	302	11.158481853071	1.01892775209
2	337	12.576801796638	1.418319943567
2	459	16.167420735432	3.590618938794
2	507	17.925556278776	1.758135543344
2	542	18.786808098667	0.861251819891
2	561	19.398409811497	0.61160171283
2	569	20.007534926238	0.609125114741
2	593	20.628690278729	0.621155352491
2	755	25.715098924777	5.086408646048
2	809	26.553208349166	0.838109424389
2	836	26.939795123136	0.38658677397
2	887	29.751711822768	2.811916699632
2	962	32.039632140104	2.287920317336
2	978	33.080246663724	1.04061452362
2	1124	38.667834936585	5.587588272861
2	1162	40.574243822148	1.906408885563
2	1170	40.809625528466	0.235381706318
2	1186	40.857221423845	0.047595895379
2	1254	44.198466919852	3.341245496007
2	1270	46.114978079535	1.916511159683
2	1278	46.130408988237	0.015430908702
2	1286	47.193620329851	1.063211341614
2	1294	47.575490054975	0.381869725124
2	1313	48.529998960579	0.954508905604
2	1329	48.658572968638	0.128574008059
2	1532	55.122093521085	6.463520552447
2	1591	55.794801284015	0.67270776293
2	1599	56.106873579394	0.312072295379
2	1623	58.531948509362	2.425074929968
2	1631	59.633665269252	1.10171675989
2	1682	60.16190052551	0.528235256258
2	1690	60.205741708392	0.043841182882
2	1698	60.79791360538	0.592171896988
2	1974	74.216720933304	13.418807327924
2	1987	74.249350946013	0.032630012709
2	2125	80.521944160015	6.272593214002
2	2144	80.761362973598	0.239418813583
2	2201	82.552419095536	1.791056121938
2	2260	84.79959354794	2.247174452404
2	2303	85.933003921903	1.133410373963
2	2319	86.659870004839	0.726866082936
2	2435	91.862693309948	5.202823305109
2	2524	95.012905537425	3.150212227477
2	2554	96.346285284469	1.333379747044
2	2570	96.525769916819	0.17948463235
2	2594	98.148165391827	1.622395475008
2	2602	98.210404322831	0.062238931004
2	2629	99.531637976301	1.32123365347
2	2637	99.532781273481	0.00114329718
2	2645	99.605139678156	0.072358404675
2	2664	100.127756722352	0.522617044196
2	2718	102.243728187951	2.115971465599
2	2872	106.728835970445	4.485107782494
2	2915	107.178884767924	0.450048797479
2	2979	109.163164932812	1.984280164888
2	2987	109.372521722225	0.209356789413
2	3030	112.16245230735	2.789930585125
2	3076	114.876435775681	2.713983468331
2	3084	115.107590828013	0.231155052332
2	3103	116.047704650039	0.940113822026
2	3119	116.604932705046	0.557228055007
2	3146	117.759949092137	1.155016387091
2	3165	118.556339346732	0.796390254595
2	3189	119.269613556798	0.713274210066
2	3300	121.675749596325	2.406136039527
2	3308	121.744147774633	0.068398178308
2	3378	124.730729207927	2.986581433294
2	3456	126.62091949781	1.890190289883
2	3464	126.783626404261	0.162706906451
2	3472	126.939482425054	0.155856020793
2	3499	127.198009644776	0.258527219722
2	3604	131.487662769162	4.289653124386
2	3620	131.908588959189	0.420926190027
2	3685	133.691637143776	1.783048184587
2	3825	139.63969793852	5.948060794744
2	3860	140.688233492467	1.048535553947
2	3957	144.008554040688	3.320320548221
2	4162	152.732777096777	8.724223056089
2	4189	153.179201117425	0.446424020648
2	4308	158.178897538996	4.999696421571
2	4408	161.337547070198	3.158649531202
2	4443	163.683397770005	2.345850699807
2	4470	164.379191468225	0.69579369822
2	4494	166.081943085487	1.702751617262
2	4540	166.68867237116	0.606729285673
2	4567	166.989161143236	0.300488772076
2	4575	167.211708814969	0.222547671733
2	4594	167.270341771058	0.058632956089
2	4742	171.949811368819	4.679469597761
2	4758	172.265666736177	0.315855367358
2	4796	174.723462194715	2.457795458538
2	4804	175.568041918398	0.844579723683
2	4831	175.77865876171	0.210616843312
2	4847	175.942307773288	0.163649011578
2	4866	177.270510608698	1.32820283541
2	4874	178.060557352595	0.790046743897
2	4882	178.069158262739	0.008600910144
2	5025	182.657424568443	4.588266305704
2	5055	184.46639474911	1.808970180667
2	5149	186.681148130742	2.214753381632
2	5165	186.919728808408	0.238580677666
2	5208	187.592597478174	0.672868669766
2	5216	187.799732728695	0.207135250521
2	5326	191.557084657131	3.757351928436
2	5469	195.769304883079	4.212220225948
2	5545	197.851102975499	2.08179809242
2	5572	199.604353080286	1.753250104787
2	5580	199.773295584031	0.168942503745
2	5604	200.280738457532	0.507442873501
2	5658	202.480736223725	2.199997766193
2	5696	204.422349507379	1.941613283654
2	5788	207.515171288048	3.092821780669
2	5831	210.205436344766	2.690265056718
2	5871	212.244007867974	2.038571523208
2	5947	213.949543417686	1.705535549712
2	5982	215.663346567387	1.713803149701
2	5998	216.593291952947	0.92994538556
2	6030	217.294256708939	0.700964755992
2	6071	219.850553824115	2.556297115176
2	6087	221.085968032345	1.23541420823
2	6136	221.610657710259	0.524689677914
2	6152	222.306582183675	0.695924473416
2	6311	227.787977086577	5.481394902902
2	6373	230.12747668397	2.339499597393
2	6400	231.562390269866	1.434913585896
2	6508	234.413838285245	2.851448015379
2	6543	235.148498263985	0.73465997874
2	6583	236.337723283963	1.189225019978
2	6610	236.722036354569	0.384313070606
2	6701	239.725538032986	3.003501678417
2	6782	242.345290662019	2.619752629033
2	6874	245.460767375031	3.115476713012
2	6960	247.537246016927	2.076478641896
2	7062	252.254490526721	4.717244509794
2	7078	252.287573775703	0.033083248982
2	7113	253.393041273087	1.105467497384
2	7140	253.72595147582	0.332910202733
2	7159	254.112280556643	0.386329080823
2	7221	254.912217157419	0.799936600776
2	7267	256.659902672841	1.747685515422
2	7283	256.76686682836	0.106964155519
2	7299	257.148347841857	0.381481013497
2	7399	260.493315411975	3.344967570118
2	7407	261.583000468313	1.089685056338
2	7439	262.197218825696	0.614218357383
2	7471	263.536225208253	1.339006382557
2	7498	264.382325582085	0.846100373832
2	7633	268.94297416376	4.560648581675
2	7687	272.040584585028	3.097610421268
2	7776	274.348955529087	2.308370944059
2	7819	276.117060107697	1.76810457861
2	7827	276.13982647418	0.022766366483
2	7835	276.63499450131	0.49516802713
2	7851	276.7381410794	0.10314657809
2	7867	277.204553128196	0.466412048796
2	8013	282.393006510359	5.188453382163
2	8150	287.269694241067	4.876687730708
2	8166	288.107353518782	0.837659277715
2	8212	290.415233078454	2.307879559672
2	8220	290.879314924503	0.464081846049
2	8236	291.316094947119	0.436780022616
2	8436	301.065108856616	9.749013909497
2	8460	301.953172336263	0.888063479647
2	8484	302.779887833103	0.82671549684
2	8514	303.652491250645	0.872603417542
2	8611	305.656932293515	2.00444104287
2	8619	306.167378429401	0.510446135886
2	8627	306.214051456392	0.046673026991
2	8635	306.29901839094	0.084966934548
2	8643	306.572769417964	0.273751027024
2	8651	306.592434256791	0.019664838827
2	8678	306.990721862784	0.398287605993
2	8694	307.30643689993	0.315715037146
2	8810	310.564135300741	3.257698400811
2	8818	310.633513549784	0.069378249043
2	8880	311.421310159173	0.787796609389
2	8904	311.821380189137	0.400070029964
2	9081	317.971955396342	6.150575207205
2	9089	318.554569805872	0.58261440953
2	9208	321.237117222061	2.682547416189
2	9243	322.147368189981	0.91025096792
2	9267	323.334148276476	1.186780086495
2	9329	324.505648492172	1.171500215696
2	9345	325.082841185614	0.577192693442
2	9396	326.689330098546	1.606488912932
2	9420	327.339683955437	0.650353856891
2	9520	332.088031717579	4.748347762142
2	9558	333.225560443464	1.137528725885
2	9585	333.908594835569	0.683034392105
2	9690	337.427191911967	3.518597076398
2	9706	337.78401924226	0.356827330293
2	9749	339.709667841268	1.925648599008
2	9765	340.537257518586	0.827589677318
2	9843	342.348853494541	1.811595975955
2	9851	342.58330979395	0.234456299409
2	9905	343.768119283481	1.184809489531
2	9943	344.315186050309	0.547066766828
2	9951	344.378685400084	0.063499349775
2	9986	345.74098339935	1.362297999266
2	10018	346.307319412501	0.566336013151
2	10026	346.591580502414	0.284261089913
2	10061	348.226936547639	1.635356045225
2	10104	349.669841332023	1.442904784384
2	10112	349.810700903339	0.140859571316
2	10169	352.127784122401	2.317083219062
2	10250	356.43499818968	4.307214067279
2	10377	360.899791210222	4.464793020542
2	10385	361.142444134621	0.242652924399
2	10450	363.24244298668	2.099998852059
2	10498	366.089025018443	2.846582031763
2	10568	368.476986087874	2.387961069431
2	10592	369.246452409671	0.769466321797
2	10616	369.806109849186	0.559657439515
2	10632	370.496953991784	0.690844142598
2	10659	370.766122815711	0.269168823927
2	10667	371.112681991488	0.346559175777
2	10864	376.787168057639	5.674486066151
2	10961	380.275373879272	3.488205821633
2	10977	381.160640206463	0.885266327191
2	10985	381.21901388287	0.058373676407
2	11001	381.951364575198	0.732350692328
2	11009	381.980721137906	0.029356562708
2	11161	387.763199226658	5.782478088752
2	11330	391.999339459732	4.236140233074
2	11338	392.149866983421	0.150527523689
2	11422	393.888809663704	1.738942680283
2	11470	395.934099113423	2.045289449719
2	11556	397.883129729636	1.949030616213
2	11575	398.408342465056	0.52521273542
2	11626	400.1610035975	1.752661132444
2	11634	400.180282683891	0.019279086391
2	11696	403.107667101778	2.927384417887
2	11712	403.685091876769	0.577424774991
2	11720	403.698608137282	0.013516260513
2	11769	405.61807096701	1.919462829728
2	11777	405.904624714179	0.286553747169
2	11785	406.005572357539	0.10094764336
2	11812	406.748551098104	0.742978740565
2	11844	408.098282301664	1.34973120356
2	11852	408.629812499887	0.531530198223
2	11917	411.154977600272	2.525165100385
2	12019	414.481032965504	3.326055365232
2	12027	415.201292642688	0.720259677184
2	12113	417.777586634553	2.576293991865
2	12143	418.545062325226	0.767475690673
2	12189	420.505805960912	1.960743635686
2	12270	422.336442534918	1.830636574006
2	12297	422.858336598351	0.521894063433
2	12423	426.251309462781	3.39297286443
2	12519	428.891985379954	2.640675917173
2	12665	432.73456836708	3.842582987126
2	12824	440.027798933965	7.293230566885
2	12932	444.034221563638	4.006422629673
2	12940	444.240767178243	0.206545614605
2	12975	445.652152037741	1.411384859498
2	12983	445.820477581818	0.168325544077
2	12991	446.112176064075	0.291698482257
2	13018	447.934236227923	1.822060163848
2	13232	459.155386411053	11.22115018313
2	13256	459.976699918924	0.821313507871
2	13302	461.435541875131	1.458841956207
2	13334	462.269208847174	0.833666972043
2	13377	464.063665625042	1.794456777868
2	13396	464.346018793458	0.282353168416
2	13415	464.919673911903	0.573655118445
2	13493	466.350947490264	1.431273578361
2	13547	466.729265603886	0.378318113622
2	13555	467.280072838523	0.550807234637
2	13619	469.5481402129	2.268067374377
2	13700	472.100777647704	2.552637434804
2	13727	472.32897782056	0.228200172856
2	13786	474.377675013238	2.048697192678
2	13805	474.831316003105	0.453640989867
2	13837	475.910614558781	1.079298555676
2	13864	476.490996672798	0.580382114017
2	13872	476.575554475919	0.084557803121
2	13921	476.963551283647	0.387996807728
2	13929	477.583748524628	0.620197240981
2	13945	478.484446548081	0.900698023453
2	14004	479.284750079084	0.800303531003
2	14012	479.999941113401	0.715191034317
2	14020	480.087474263944	0.087533150543
2	14044	480.748606402899	0.661132138955
2	14052	480.888418650964	0.139812248065
2	14068	481.119000306459	0.230581655495
2	14114	482.959527402942	1.840527096483
2	14152	484.806957188988	1.847429786046
2	14260	487.777940278437	2.970983089449
2	14268	488.260367859619	0.482427581182
2	14424	492.986333714951	4.725965855332
2	14467	495.88533251692	2.898998801969
2	14483	496.437966628595	0.552634111675
2	14518	497.347651826764	0.909685198169
2	14575	499.847141762312	2.499489935548
3	133	5.366249961681	5.366249961681
3	149	6.190019928492	0.823769966811
3	192	7.393565340453	1.203545411961
3	238	9.396954371587	2.003389031134
3	254	9.748597564181	0.351643192594
3	286	10.588801622644	0.840204058463
3	310	11.38793375709	0.799132134446
3	378	13.828760618247	2.440826861157
3	424	14.649193298162	0.820432679915
3	451	16.158438635309	1.509245337147
3	483	16.944976252426	0.786537617117
3	491	17.11635792824	0.171381675814
3	663	22.479995186549	5.363637258309
3	698	24.69965873833	2.219663551781
3	817	26.834620387562	2.134961649232
3	844	27.286440291511	0.451819903949
3	895	30.102018171415	2.815577879904
3	914	30.724284583664	0.622266412249
3	938	31.367030134833	0.642745551169
3	946	31.505281842013	0.13825170718
3	970	32.836494828223	1.33121298621
3	986	33.128720756945	0.292225928722
3	1021	35.092302229893	1.963581472948
3	1081	37.85385739948	2.761555169587
3	1105	38.434692021363	0.580834621883
3	1178	40.846817344163	2.4121253228
3	1238	43.347931202845	2.501113858682
3	1246	43.43439555608	0.086464353235
3	1321	48.554445298812	5.120049742732
3	1337	49.386176372509	0.831731073697
3	1706	61.923133123067	12.536956750558
3	1714	62.232507488581	0.309374365514
3	1902	71.690704505284	9.458197016703
3	1918	72.613781643108	0.923077137824
3	1926	73.058127273559	0.444345630451
3	1958	74.088715833684	1.030588560125
3	2017	75.400799350717	1.312083517033
3	2036	76.306482361569	0.905683010852
3	2052	76.544642794217	0.238160432648
3	2060	77.021418327078	0.476775532861
3	2068	77.109507822546	0.088089495468
3	2106	79.002003895903	1.892496073357
3	2182	81.84625267413	2.844248778227
3	2236	83.475443608003	1.629190933873
3	2252	84.462479819888	0.987036211885
3	2268	85.150924985728	0.68844516584
3	2276	85.332553244552	0.181628258824
3	2295	85.767738861891	0.435185617339
3	2311	85.940971516996	0.173232655105
3	2327	86.727808575468	0.786837058472
3	2335	86.974051701612	0.246243126144
3	2351	87.526206543074	0.552154841462
3	2381	89.049907276517	1.523700733443
3	2454	92.722678307253	3.672771030736
3	2462	92.809978290744	0.087299983491
3	2578	96.559563899495	3.749585608751
3	2586	97.787218455485	1.22765455599
3	2621	98.814225234769	1.027006779284
3	2710	101.916911038325	3.102685803556
3	2742	103.203280620216	1.286369581891
3	2761	103.439521967908	0.236241347692
3	2891	107.033395478411	3.593873510503
3	2899	107.078640155809	0.045244677398
3	2931	107.614502834868	0.535862679059
3	3014	110.569778199847	2.955275364979
3	3057	113.793375767849	3.223597568002
3	3111	116.095831861567	2.302456093718
3	3138	117.681197467856	1.585365606289
3	3173	118.675435732829	0.994238264973
3	3181	118.935777727964	0.260341995135
3	3265	120.48792772956	1.552150001596
3	3370	124.421344120452	3.933416390892
3	3402	125.070568276181	0.649224155729
3	3507	127.5220829086	2.451514632419
3	3515	127.670742651387	0.148659742787
3	3523	128.10137953954	0.430636888153
3	3588	131.013963528578	2.912583989038
3	3596	131.099584236635	0.085620708057
3	3612	131.710702872053	0.611118635418
3	3639	132.453187332588	0.742484460535
3	3693	133.79738497981	1.344197647222
3	3701	134.018517227478	0.221132247668
3	3720	134.641930452574	0.623413225096
3	3728	135.050293769092	0.408363316518
3	3782	137.17292069413	2.122626925038
3	3809	139.378794389342	2.205873695212
3	3852	140.554137490976	1.175343101634
3	3941	143.22758157756	2.673444086584
3	4065	147.998652153583	4.771070576023
3	4227	154.98298814272	6.984335989137
3	4235	155.305797547635	0.322809404915
3	4243	155.3255238547	0.019726307065
3	4262	156.10253709387	0.77701323917
3	4270	156.55807982986	0.45554273599
3	4327	158.290426396256	1.732346566396
3	4376	160.020946452578	1.730520056322
3	4416	161.818235679413	1.797289226835
3	4424	161.932982540302	0.114746860889
3	4521	166.474587967899	4.541605427597
3	4610	167.587671476914	1.113083509015
3	4669	168.981521693439	1.393850216525
3	4723	171.846772149845	2.865250456406
3	4766	172.758287339156	0.911515189311
3	4901	179.001872581428	6.243585242272
3	4920	179.773083401733	0.771210820305
3	4939	180.894804316249	1.121720914516
3	4958	181.029463358215	0.134659041966
3	4966	181.074307732022	0.044844373807
3	4974	181.215125406694	0.140817674672
3	4982	181.304664898876	0.089539492182
3	4998	181.85139549725	0.546730598374
3	5017	182.386331760487	0.534936263237
3	5114	185.331830036724	2.945498276237
3	5200	187.483040804334	2.15121076761
3	5251	189.902466961188	2.419426156854
3	5259	189.929978869046	0.027511907858
3	5267	189.987367152829	0.057388283783
3	5283	190.560290207192	0.572923054363
3	5310	191.405686771757	0.845396564565
3	5407	192.902509824008	1.496823052251
3	5426	193.463913726063	0.561403902055
3	5434	194.104614233295	0.640700507232
3	5442	194.271935998397	0.167321765102
3	5450	195.286677820869	1.014741822472
3	5496	196.292163199249	1.00548537838
3	5564	198.908254194502	2.616090995253
3	5596	200.096775841182	1.18852164668
3	5628	201.053886401149	0.957110559967
3	5666	203.043072566935	1.989186165786
3	5712	205.436906770405	2.39383420347
3	5742	206.644626867992	1.207720097587
3	5769	207.022643466016	0.378016598024
3	5839	210.382769423226	3.36012595721
3	5855	211.123211461973	0.740442038747
3	5955	214.007682540271	2.884471078298
3	6022	216.998842044884	2.991159504613
3	6171	223.168698410748	6.169856365864
3	6206	224.649111214269	1.480412803521
3	6225	225.191643450616	0.542532236347
3	6252	226.152563461118	0.960920010502
3	6268	226.6775787334	0.525015272282
3	6276	226.809491932288	0.131913198888
3	6303	227.698530406119	0.889038473831
3	6341	228.992538681957	1.294008275838
3	6349	229.080753050782	0.088214368825
3	6365	230.050495845403	0.969742794621
3	6419	232.025029498987	1.974533653584
3	6481	233.485032491455	1.460002992468
3	6535	234.756682462162	1.271649970707
3	6551	235.287394850896	0.530712388734
3	6602	236.701114364467	1.413719513571
3	6669	238.944714153092	2.243599788625
3	6693	239.101876428509	0.157162275417
3	6717	241.144808199324	2.042931770815
3	6725	241.441698925993	0.296890726669
3	6809	243.164784804529	1.723085878536
3	6847	245.076071148872	1.911286344343
3	6855	245.115160735042	0.03908958617
3	6987	248.205133938628	3.089973203586
3	7011	249.921306205229	1.716172266601
3	7070	252.258680736124	2.337374530895
3	7175	254.374539525685	2.115858789561
3	7259	256.553118472235	2.17857894655
3	7275	256.672586120175	0.11946764794
3	7307	257.203545017753	0.530958897578
3	7383	260.052955604449	2.849410586696
3	7391	260.155701474626	0.102745870177
3	7455	262.791841075053	2.636139600427
3	7479	263.611656179853	0.8198151048
3	7547	266.174219960473	2.56256378062
3	7563	266.760014676088	0.585794715615
3	7571	266.761588409768	0.00157373368
3	7598	267.844489578084	1.082901168316
3	7714	272.865674292645	5.021184714561
3	7738	273.472219367205	0.60654507456
3	7757	274.292597009036	0.820377641831
3	7927	280.279452766626	5.98685575759
3	7935	280.592027407055	0.312574640429
3	7943	280.658203539893	0.066176132838
3	7978	281.446875897503	0.78867235761
3	8043	282.807805824443	1.36092992694
3	8059	283.027166642851	0.219360818408
3	8075	283.598551587356	0.571384944505
3	8107	284.788333728313	1.189782140957
3	8123	285.697442676811	0.909108948498
3	8185	289.904427976528	4.206985299717
3	8228	291.307383276594	1.402955300066
3	8244	291.955446310706	0.648063034112
3	8263	294.001651651038	2.046205340332
3	8282	294.134776618038	0.133124967
3	8301	296.025814006264	1.891037388226
3	8309	296.044793633653	0.018979627389
3	8328	296.476599139214	0.431805505561
3	8336	297.074044726655	0.597445587441
3	8344	297.158789736517	0.084745009862
3	8352	297.821742377032	0.662952640515
3	8371	298.206049276289	0.384306899257
3	8401	299.935715342429	1.72966606614
3	8420	300.768211512196	0.832496169767
3	8452	301.883017481242	1.114805969046
3	8702	307.757593262328	5.874575781086
3	8751	309.464752774398	1.70715951207
3	8872	311.241198890614	1.776446116216
3	8896	311.704386115164	0.46318722455
3	8912	312.008249735065	0.303863619901
3	8936	312.552276988622	0.544027253557
3	8944	312.750677636656	0.198400648034
3	9035	317.317207937327	4.566530300671
3	9138	319.775216843859	2.458008906532
3	9235	321.851157974411	2.075941130552
3	9275	323.468501821628	1.617343847217
3	9294	323.839183171187	0.370681349559
3	9353	325.222890875207	1.38370770402
3	9404	326.698884671046	1.475993795839
3	9439	327.642691198617	0.943806527571
3	9455	328.34259864719	0.699907448573
3	9577	333.875043636009	5.532444988819
3	9593	333.943825470064	0.068781834055
3	9601	333.956794625246	0.012969155182
3	9633	334.994181458253	1.037386833007
3	9641	335.596317048518	0.602135590265
3	9671	336.946176624001	1.349859575483
3	9698	337.735412460656	0.789235836655
3	9730	339.340918619583	1.605506158927
3	9800	341.842108949535	2.501190329952
3	9859	342.918758206185	1.07664925665
3	9994	345.824580662214	2.905822456029
3	10010	346.223188871925	0.398608209711
3	10053	348.028687517775	1.80549864585
3	10069	348.25704714763	0.228359629855
3	10085	348.602293205825	0.345246058195
3	10177	353.862980744963	5.260687539138
3	10185	354.158739569332	0.295758824369
3	10258	356.449449989235	2.290710419903
3	10412	361.45529475663	5.005844767395
3	10458	363.497595424389	2.042300667759
3	10466	363.554425388332	0.056829963943
3	10474	364.630761163779	1.076335775447
3	10482	364.886175658824	0.255414495045
3	10789	373.616872822633	8.730697163809
3	10805	373.858950353474	0.242077530841
3	10837	376.03876598874	2.179815635266
3	10872	377.003951292624	0.965185303884
3	10945	379.470070113077	2.466118820453
3	11104	385.61221212423	6.142142011153
3	11188	388.775391177049	3.163179052819
3	11196	388.803516754034	0.028125576985
3	11228	389.776620000199	0.973103246165
3	11260	390.952906336901	1.176286336702
3	11279	391.099337100916	0.146430764015
3	11295	391.252414659916	0.153077559
3	11322	391.922233692578	0.669819032662
3	11354	392.328825098067	0.406591405489
3	11430	393.972157983283	1.643332885216
3	11446	394.5603099088	0.588151925517
3	11489	396.622140523246	2.061830614446
3	11529	397.681755126129	1.059614602883
3	11602	399.143177280181	1.461422154052
3	11618	400.048322885058	0.905145604877
3	11704	403.300141987959	3.251819102901
3	11820	407.079904194375	3.779762206416
3	11836	407.806093950234	0.726189755859
3	11860	408.862922757429	1.056828807195
3	11868	409.367524062795	0.504601305366
3	11909	410.973568278261	1.606044215466
3	11925	411.480600373118	0.507032094857
3	11944	411.835288436023	0.354688062905
3	11960	412.483341030262	0.648052594239
3	11976	413.098386064859	0.615045034597
3	12348	424.137603939554	11.039217874695
3	12375	424.82142038898	0.683816449426
3	12383	425.454204299079	0.632783910099
3	12407	426.114694706426	0.660490407347
3	12431	426.285612158963	0.170917452537
3	12439	426.290598574588	0.004986415625
3	12463	427.052388055801	0.761789481213
3	12471	427.2616890961	0.209301040299
3	12503	428.090851191333	0.829162095233
3	12611	430.524111651699	2.433260460366
3	12619	430.985555608865	0.461443957166
3	12681	433.411662961693	2.426107352828
3	12689	433.422020513904	0.010357552211
3	12735	435.525063854534	2.10304334063
3	12743	435.861628344486	0.336564489952
3	12775	436.209458558016	0.34783021353
3	12886	442.429125811546	6.21966725353
3	12999	446.604703634483	4.175577822937
3	13034	449.907397107155	3.302693472672
3	13042	450.075006664115	0.16760955696
3	13050	450.103349281379	0.028342617264
3	13080	451.122959130009	1.01960984863
3	13099	453.29684548031	2.173886350301
3	13140	455.510018825304	2.213173344994
3	13181	457.080259315711	1.570240490407
3	13208	458.468912835685	1.388653519974
3	13216	459.010048361021	0.541135525336
3	13224	459.034371234705	0.024322873684
3	13264	460.573863975889	1.539492741184
3	13283	461.2919754244	0.718111448511
3	13318	462.196846158267	0.904870733867
3	13423	464.938017938666	2.741171780399
3	13447	465.663355506063	0.725337567397
3	13477	466.27707096867	0.613715462607
3	13485	466.299633866349	0.022562897679
3	13531	466.72247804269	0.422844176341
3	13673	471.871069024521	5.148590981831
3	13692	472.02551194931	0.154442924789
3	13735	472.356698103242	0.331186153932
3	13813	475.176255138646	2.819557035404
3	13856	476.232832919586	1.05657778094
3	13980	479.061345831959	2.828512912373
3	13988	479.094624994774	0.033279162815
3	13996	479.173154833662	0.078529838888
3	14122	483.861017363513	4.687862529851
3	14276	488.262704397178	4.401687033665
3	14292	488.510231861881	0.247527464703
3	14346	490.256902371872	1.746670509991
3	14354	490.428664670561	0.171762298689
3	14510	497.289852030675	6.861187360114
3	14526	497.611255976585	0.32140394591
3	14545	498.437012668599	0.825756692014
4	157	6.610355999691	6.610355999691
4	165	6.857796302607	0.247440302916
4	184	6.966787661428	0.108991358821
4	219	8.059472054071	1.092684392643
4	262	10.120641239715	2.061169185644
4	278	10.329283048374	0.208641808659
4	416	14.559484652492	4.230201604118
4	467	16.253880334832	1.69439568234
4	499	17.228471427707	0.974591092875
4	515	17.949744995775	0.721273568068
4	577	20.203620156509	2.253875160734
4	601	20.729553231589	0.52593307508
4	679	22.6499067892	1.920353557611
4	706	25.095759786689	2.445852997489
4	774	25.933379183934	0.837619397245
4	930	31.19834198793	5.264962803996
4	954	31.973895290036	0.775553302106
4	1040	35.491723433411	3.517828143375
4	1089	38.169539938107	2.677816504696
4	1097	38.20227382099	0.032733882883
4	1132	39.374428993202	1.172155172212
4	1356	50.457478208601	11.083049215399
4	1364	50.594138963636	0.136660755035
4	1372	50.670304558345	0.076165594709
4	1380	50.751695124891	0.081390566546
4	1437	51.201515642559	0.449820517668
4	1445	52.266223419602	1.064707777043
4	1483	54.182778856864	1.916555437262
4	1513	54.522219954396	0.339441097532
4	1551	55.264311726922	0.742091772526
4	1559	55.35864700833	0.094335281408
4	1575	55.784950690302	0.426303681972
4	1607	56.17736684766	0.392416157358
4	1666	60.142093498422	3.964726650762
4	1674	60.157235185499	0.015141687077
4	1826	69.590931354289	9.43369616879
4	1853	70.796083494978	1.205152140689
4	1872	71.310501780564	0.514418285586
4	1934	73.784928606051	2.474426825487
4	1942	73.96410296911	0.179174363059
4	2044	76.399388624101	2.435285654991
4	2076	77.4344662319	1.035077607799
4	2152	80.772285064045	3.337818832145
4	2220	82.634031398326	1.861746334281
4	2244	84.366583820658	1.732552422332
4	2408	90.867599497041	6.501015676383
4	2427	91.60158367464	0.733984177599
4	2470	93.4309675517	1.82938387706
4	2489	93.824315201068	0.393347649368
4	2562	96.350622301278	2.52630710021
4	2691	101.296340273896	4.945717972618
4	2769	103.735841457338	2.439501183442
4	2796	104.379839337495	0.643997880157
4	2826	105.018824980648	0.638985643153
4	2845	105.461662237471	0.442837256823
4	2853	105.531405052129	0.069742814658
4	2907	107.166051727197	1.634646675068
4	2955	108.212809444785	1.046757717588
4	2963	108.511001422839	0.298191978054
4	2971	108.805228510527	0.294227087688
4	3006	109.857587926708	1.052359416181
4	3038	112.646975174139	2.789387247431
4	3227	120.146986629152	7.500011455013
4	3284	121.355828390248	1.208841761096
4	3292	121.553624000564	0.197795610316
4	3335	122.688431192805	1.134807192241
4	3354	123.026114815126	0.337683622321
4	3362	124.10779665308	1.081681837954
4	3429	125.875231595292	1.767434942212
4	3491	127.145440421753	1.270208826461
4	3531	128.287415247462	1.141974825709
4	3539	128.417329421687	0.129914174225
4	3647	132.53735948258	4.120030060893
4	3677	133.632744326974	1.095384844394
4	3801	139.122107031786	5.489362704812
4	3868	140.793222651166	1.67111561938
4	3895	141.753188410358	0.959965759192
4	3976	144.39300560878	2.639817198422
4	4022	146.851598233487	2.458592624707
4	4057	147.75470918926	0.903110955773
4	4084	148.466230983743	0.711521794483
4	4092	148.486936506331	0.020705522588
4	4108	149.42053179175	0.933595285419
4	4116	149.66530921628	0.24477742453
4	4181	153.094670653843	3.429361437563
4	4208	154.079912595316	0.985241941473
4	4278	157.39432403381	3.314411438494
4	4346	159.178190432994	1.783866399184
4	4384	160.828800942112	1.650610509118
4	4486	164.673062778002	3.84426183589
4	4626	168.477741855779	3.804679077777
4	4645	168.547876880912	0.070135025133
4	4699	170.147946762922	1.60006988201
4	4750	172.072734906639	1.924788143717
4	4839	175.794325667446	3.721590760807
4	4990	181.651191588291	5.856865920845
4	5082	184.896332940184	3.245141351893
4	5106	185.166564805122	0.270231864938
4	5122	185.494784235603	0.328219430481
4	5141	186.484191229379	0.989406993776
4	5173	186.931871215751	0.447679986372
4	5275	190.398688790211	3.46681757446
4	5302	191.107838706406	0.709149916195
4	5334	191.590571467969	0.482732761563
4	5342	191.632927518283	0.042356050314
4	5372	192.251459862851	0.618532344568
4	5477	195.842579031386	3.591119168535
4	5588	199.904374122504	4.061795091118
4	5620	200.459037250253	0.554663127749
4	5704	204.501477229474	4.042439979221
4	5761	206.949829910469	2.448352680995
4	5823	210.007888198175	3.058058287706
4	5906	212.747132961377	2.739244763202
4	6006	216.76534978335	4.018216821973
4	6079	220.505645780019	3.740295996669
4	6106	221.212725895928	0.707080115909
4	6144	222.293607508974	1.080881613046
4	6179	224.050415783296	1.756808274322
4	6357	229.142645716867	5.092229933571
4	6427	232.336727576628	3.194081859761
4	6435	232.800929880489	0.464202303861
4	6443	233.041281950701	0.240352070212
4	6473	233.430715518528	0.389433567827
4	6559	235.334919839326	1.904204320798
4	6645	237.898121903149	2.563202063823
4	6677	238.946791459333	1.048669556184
4	6755	241.736983398845	2.790191939512
4	6839	244.756218581383	3.019235182538
4	6882	245.700935836169	0.944717254786
4	6933	247.046039840149	1.34510400398
4	6979	247.710873383764	0.664833543615
4	6995	248.212493106606	0.501619722842
4	7003	248.623968462385	0.411475355779
4	7035	251.67112032126	3.047151858875
4	7054	252.180392914521	0.509272593261
4	7086	252.412558852165	0.232165937644
4	7213	254.743639696844	2.331080844679
4	7229	255.279636042907	0.535996346063
4	7337	258.765126009921	3.485489967014
4	7356	259.342794921896	0.577668911975
4	7415	261.646255143014	2.303460221118
4	7447	262.361208908491	0.714953765477
4	7617	268.603579189677	6.242370281186
4	7641	269.212977779033	0.609398589356
4	7730	273.379801966499	4.166824187466
4	7784	275.057430483244	1.677628516745
4	7792	275.087513160988	0.030082677744
4	7811	275.575920016063	0.488406855075
4	7859	277.113562224676	1.537642208613
4	7919	279.759659143785	2.646096919109
4	7951	280.679474998496	0.919815854711
4	7959	280.709931213582	0.030456215086
4	7986	281.70985372009	0.999922506508
4	8005	282.08545192876	0.37559820867
4	8067	283.228008859199	1.142556930439
4	8083	283.717990140919	0.48998128172
4	8091	284.474930824523	0.756940683604
4	8099	284.587849017308	0.112918192785
4	8115	285.02683224594	0.438983228632
4	8158	287.335000334842	2.308168088902
4	8204	290.378264409867	3.043264075025
4	8468	302.354944863987	11.97668045412
4	8476	302.668457761454	0.313512897467
4	8522	304.198744320593	1.530286559139
4	8541	304.718022339906	0.519278019313
4	8557	304.939515636956	0.22149329705
4	8595	305.334995742028	0.395480105072
4	8603	305.596576097489	0.261580355461
4	8670	306.943601167385	1.347025069896
4	8759	309.572846418182	2.629245250797
4	8767	309.649339736995	0.076493318813
4	8786	310.065728510669	0.416388773674
4	8794	310.21735552653	0.151627015861
4	8802	310.376840040718	0.159484514188
4	8826	310.653276528572	0.276436487854
4	8845	310.974932929942	0.32165640137
4	8920	312.172578620317	1.197645690375
4	8952	312.844583122535	0.672004502218
4	8960	312.990338143397	0.145755020862
4	8968	313.087305535869	0.096967392472
4	8976	313.775702212841	0.688396676972
4	8984	314.554096004995	0.778393792154
4	9027	316.810893447005	2.25679744201
4	9146	319.917900873284	3.107007426279
4	9154	319.923460296508	0.005559423224
4	9162	319.982322324622	0.058862028114
4	9181	320.916129454556	0.933807129934
4	9200	321.127463659265	0.211334204709
4	9227	321.475699265264	0.348235605999
4	9251	322.255194416514	0.77949515125
4	9259	322.318099855638	0.062905439124
4	9412	327.338362086784	5.020262231146
4	9463	328.903366492305	1.565004405521
4	9609	333.970001567119	5.066635074814
4	9617	334.528463484552	0.558461917433
4	9625	334.88652145681	0.358057972258
4	9714	338.132446979114	3.245925522304
4	9722	338.765997589354	0.63355061024
4	9757	340.078453837597	1.312456248243
4	9781	341.364931069371	1.286477231774
4	9816	342.206466113746	0.841535044375
4	9867	343.008400559089	0.801934445343
4	10002	345.980890480511	2.972489921422
4	10045	347.562525573782	1.581635093271
4	10296	357.804251725473	10.241726151691
4	10304	358.640767751732	0.836516026259
4	10347	360.035266370723	1.394498618991
4	10431	361.958933286291	1.923666915568
4	10506	366.221395876916	4.262462590625
4	10514	366.8943364145	0.672940537584
4	10530	367.028376155066	0.134039740566
4	10576	368.782796743414	1.754420588348
4	10608	369.501396429164	0.71859968575
4	10694	371.387705244806	1.886308815642
4	10773	373.486633142747	2.098927897941
4	10797	373.66517301233	0.178539869583
4	10813	373.885203171305	0.220030158975
4	10856	376.372333257732	2.487130086427
4	10926	378.199549761402	1.82721650367
4	10969	381.099239096724	2.899689335322
4	11061	383.76420908286	2.664969986136
4	11069	383.797128087344	0.032919004484
4	11134	386.619739941058	2.822611853714
4	11180	388.439858587061	1.820118646003
4	11204	388.822394727222	0.382536140161
4	11212	388.873325644527	0.050930917305
4	11244	390.290972369987	1.41764672546
4	11346	392.237262291487	1.9462899215
4	11362	392.532242640132	0.294980348645
4	11370	392.920407386853	0.388164746721
4	11454	394.615973529992	1.695566143139
4	11462	395.114173104583	0.498199574591
4	11505	397.469626634948	2.355453530365
4	11521	397.524824542772	0.055197907824
4	11548	397.857284382363	0.332459839591
4	11661	402.076633197484	4.219348815121
4	11677	402.305987093419	0.229353895935
4	11728	403.882336024137	1.576348930718
4	11804	406.445166804719	2.562830780582
4	11828	407.383121521771	0.937954717052
4	11952	412.119958721213	4.736837199442
4	11984	413.174075610558	1.054116889345
4	12035	415.436606342342	2.262530731784
4	12051	415.573939617313	0.137333274971
4	12075	416.781838461296	1.207898843983
4	12208	421.108746870369	4.326908409073
4	12224	421.470081012858	0.361334142489
4	12262	422.239481643131	0.769400630273
4	12321	423.953233207068	1.713751563937
4	12340	424.03314466609	0.079911459022
4	12391	425.659336985771	1.626192319681
4	12399	425.738182003325	0.078845017554
4	12455	426.688090165235	0.94990816191
4	12495	427.962887579772	1.274797414537
4	12535	429.073184811749	1.110297231977
4	12554	429.844724798965	0.771539987216
4	12595	430.247771824904	0.403047025939
4	12603	430.489694672716	0.241922847812
4	12673	432.82798243815	2.338287765434
4	12727	434.966532103222	2.138549665072
4	12832	440.339400701538	5.372868598316
4	12840	440.835426046431	0.496025344893
4	12848	441.022497925157	0.187071878726
4	12856	441.374535016048	0.352037090891
4	12905	442.98428581551	1.609750799462
4	12913	443.236671234084	0.252385418574
4	12948	444.549970377818	1.313299143734
4	12967	445.382012867334	0.832042489516
4	13240	459.252473023143	13.870460155809
4	13248	459.432304974646	0.179831951503
4	13310	461.610031901891	2.177726927245
4	13326	462.211649228405	0.601617326514
4	13342	462.338509521394	0.126860292989
4	13350	462.684431148392	0.345921626998
4	13431	464.944536734096	2.260105585704
4	13512	466.528617058347	1.584080324251
4	13563	467.292359771911	0.763742713564
4	13571	467.383875064198	0.091515292287
4	13579	467.813430774428	0.42955571023
4	13587	468.031939205506	0.218508431078
4	13603	468.319322604519	0.287383399013
4	13611	468.440738669351	0.121416064832
4	13654	471.528512918629	3.087774249278
4	13762	472.946594588621	1.418081669992
4	13821	475.681480165298	2.734885576677
4	13880	476.74803411065	1.066553945352
4	13937	478.225895193532	1.477861082882
4	14028	480.546477670082	2.32058247655
4	14060	480.993951281735	0.447473611653
4	14087	482.238440996992	1.244489715257
4	14106	482.550122894932	0.31168189794
4	14160	484.963668125286	2.413545230354
4	14168	485.153544101581	0.189875976295
4	14284	488.397635324436	3.244091222855
4	14338	489.751190026444	1.353554702008
4	14362	490.630347569802	0.879157543358
4	14370	490.743932247797	0.113584677995
4	14408	492.581246338049	1.837314090252
4	14459	495.787003533597	3.205757195548
4	14491	496.438717386847	0.65171385325

