version 2
run General-6-20220514-10:33:44-24844
attr configname General
attr datetime 20220514-10:33:44
attr experiment General
attr inifile omnetpp.ini
attr iterationvars $0=0.7
attr iterationvarsf 0.7-
attr measurement $0=0.7
attr network Lab2
attr processid 24844
attr repetition 0
attr replication #0
attr resultdir results
attr runnumber 6
attr seedset 6
param **.sim_time 500s
param **.next_event_par 1.0/(0.7)
param **.pck_len_mean 1000
param **.pck_len_stddev 150
param **.pck_len_min 26
param **.pck_len_max 1480
param **.num_of_hosts 4
param **.host1.ipAddr.IP_addr 0
param **.host2.ipAddr.IP_addr 1
param **.host3.ipAddr.IP_addr 2
param **.host4.ipAddr.IP_addr 3
param **.arp_ttl 10s
param **.host1.eth.MAC_addr 0
param **.host2.eth.MAC_addr 1
param **.host3.eth.MAC_addr 2
param **.host4.eth.MAC_addr 3
param **.aging_time 1s

vector 0 Lab2.host4.eth interval:vector ETV
attr interpolationmode none
attr source interval
attr title "interval, vector"
vector 1 Lab2 delay:vector ETV
attr interpolationmode none
attr source delay
attr title "delay, vector"
vector 2 Lab2.host2.eth interval:vector ETV
attr interpolationmode none
attr source interval
attr title "interval, vector"
vector 3 Lab2.host1.eth interval:vector ETV
attr interpolationmode none
attr source interval
attr title "interval, vector"
vector 4 Lab2.host3.eth interval:vector ETV
attr interpolationmode none
attr source interval
attr title "interval, vector"
0	68	0.162922069198	0.162922069198
0	95	0.656545077665	0.493623008467
0	171	4.27220397847	3.615658900805
0	222	7.747840820647	3.475636842177
0	246	8.043187282224	0.295346461577
0	324	11.737341239136	3.694153956912
0	389	13.556445025381	1.819103786245
0	427	15.187395471464	1.630950446083
0	435	15.222867966034	0.03547249457
0	443	15.327067153996	0.104199187962
0	519	17.030397933119	1.703330779123
0	559	18.242162393155	1.211764460036
0	578	18.51271613257	0.270553739415
0	586	18.754848156121	0.242132023551
0	602	19.244228457214	0.489380301093
0	618	19.81462425602	0.570395798806
0	650	22.382885199931	2.568260943911
0	674	23.560891874162	1.178006674231
0	682	24.003045415589	0.442153541427
0	845	30.306386836561	6.303341420972
0	869	30.949261192763	0.642874356202
0	901	31.795823667359	0.846562474596
0	933	32.682569673281	0.886746005922
0	968	33.763169003043	1.080599329762
0	984	34.008822674937	0.245653671894
0	992	34.130126386721	0.121303711784
0	1070	36.733356483396	2.603230096675
0	1078	36.743893911873	0.010537428477
0	1094	37.661074385374	0.917180473501
0	1121	39.199825443183	1.538751057809
0	1332	48.077366494818	8.877541051635
0	1340	48.762841364884	0.685474870066
0	1383	50.850161484198	2.087320119314
0	1429	52.525448894226	1.675287410028
0	1437	52.839352887768	0.313903993542
0	1445	52.868053271267	0.028700383499
0	1461	54.900640671389	2.032587400122
0	1469	55.297788304239	0.39714763285
0	1515	56.170906798131	0.873118493892
0	1610	62.438383542401	6.26747674427
0	1618	62.727757275334	0.289373732933
0	1761	68.802691638588	6.074934363254
0	1785	70.207182849593	1.404491211005
0	1872	73.83626319033	3.629080340737
0	1880	74.063190497686	0.226927307356
0	1948	75.744290713019	1.681100215333
0	1964	76.378341873824	0.634051160805
0	2077	80.727397110343	4.349055236519
0	2139	82.821844440537	2.094447330194
0	2223	87.339483243282	4.517638802745
0	2239	88.441827657553	1.102344414271
0	2258	89.040942947951	0.599115290398
0	2315	93.039522998336	3.998580050385
0	2369	95.752696074566	2.71317307623
0	2431	97.730381291512	1.977685216946
0	2463	98.90786135826	1.177480066748
0	2471	99.084266395027	0.176405036767
0	2520	100.547994493345	1.463728098318
0	2776	111.162144675967	10.614150182622
0	2887	116.12823470927	4.966090033303
0	2925	117.031071197449	0.902836488179
0	2941	117.658043636919	0.62697243947
0	3081	121.331839345023	3.673795708104
0	3097	121.981141794546	0.649302449523
0	3297	129.582403830936	7.60126203639
0	3367	132.994371118809	3.411967287873
0	3434	138.086249042648	5.091877923839
0	3494	139.143434894924	1.057185852276
0	3591	144.163719106555	5.020284211631
0	3658	147.831664964444	3.667945857889
0	3706	148.523050004977	0.691385040533
0	4117	165.896422976938	17.373372971961
0	4144	167.251238084548	1.35481510761
0	4179	167.96337770443	0.712139619882
0	4187	168.343397834354	0.380020129924
0	4195	168.453265850933	0.109868016579
0	4298	175.073139973702	6.619874122769
0	4385	179.669154613597	4.596014639895
0	4404	180.984312206095	1.315157592498
0	4528	184.998426324293	4.014114118198
0	4552	185.392545976292	0.394119651999
0	4560	185.794564329335	0.402018353043
0	4622	188.344100518672	2.549536189337
0	4654	190.403209978854	2.059109460182
0	4708	192.350205524121	1.946995545267
0	4716	192.435708446296	0.085502922175
0	4814	195.996004426861	3.560295980565
0	4830	196.427635438838	0.431631011977
0	4854	197.266184102817	0.838548663979
0	4873	198.88277461349	1.616590510673
0	4962	201.476744838718	2.593970225228
0	4994	204.172565021378	2.69582018266
0	5067	206.135118612614	1.962553591236
0	5075	206.383906213949	0.248787601335
0	5329	220.067531630747	13.683625416798
0	5389	222.832995640617	2.76546400987
0	5408	222.878343935516	0.045348294899
0	5416	223.391188657279	0.512844721763
0	5424	223.824027263412	0.432838606133
0	5518	226.776795282047	2.952768018635
0	5526	226.781206875413	0.004411593366
0	5534	227.381489019486	0.600282144073
0	5612	230.650092859141	3.268603839655
0	5650	232.27118255783	1.621089698689
0	5658	232.736090601735	0.464908043905
0	5696	237.040989854722	4.304899252987
0	5704	237.205903525148	0.164913670426
0	5712	237.285051765099	0.079148239951
0	5783	238.878739349846	1.593687584747
0	5826	242.647604734341	3.768865384495
0	5872	244.305846452135	1.658241717794
0	5896	244.857702992383	0.551856540248
0	5912	245.167198132385	0.309495140002
0	6015	249.766706070489	4.599507938104
0	6229	261.503029790565	11.736323720076
0	6283	262.640704501161	1.137674710596
0	6315	263.378380312879	0.737675811718
0	6331	263.488832708411	0.110452395532
0	6446	267.311242135428	3.822409427017
0	6555	272.216391902701	4.905149767273
0	6590	273.137329733885	0.920937831184
0	6606	273.841980778586	0.704651044701
0	6665	275.165339043704	1.323358265118
0	6689	275.620885004653	0.455545960949
0	6713	275.805185520764	0.184300516111
0	6775	278.650129940644	2.84494441988
0	6783	278.937832602721	0.287702662077
0	6829	279.905294642059	0.967462039338
0	6845	281.128485252119	1.22319061006
0	6861	281.930605292842	0.802120040723
0	6869	282.275769574294	0.345164281452
0	6904	283.031797890254	0.75602831596
0	6920	284.667794316357	1.635996426103
0	7080	294.168657974428	9.500863658071
0	7293	303.873942949647	9.705284975219
0	7301	304.489257559246	0.615314609599
0	7320	305.702866078683	1.213608519437
0	7339	306.119156033597	0.416289954914
0	7477	311.328760745127	5.20960471153
0	7584	316.714857744806	5.386096999679
0	7592	317.376469898768	0.661612153962
0	7633	318.934934022351	1.558464123583
0	7657	320.452252981004	1.517318958653
0	7819	325.668527510327	5.216274529323
0	7881	327.465865878834	1.797338368507
0	7943	330.004047795688	2.538181916854
0	7989	331.834778411703	1.830730616015
0	7997	332.68837998282	0.853601571117
0	8043	334.985932446754	2.297552463934
0	8059	335.087104425002	0.101171978248
0	8075	335.518187640292	0.43108321529
0	8124	337.594955717869	2.076768077577
0	8175	339.401239712801	1.806283994932
0	8183	339.470030860084	0.068791147283
0	8283	344.0450432047	4.575012344616
0	8307	344.829136468481	0.784093263781
0	8345	345.642876171071	0.81373970259
0	8353	346.530813076429	0.887936905358
0	8450	350.595855925598	4.065042849169
0	8466	350.948560347634	0.352704422036
0	8498	351.56747136294	0.618911015306
0	8698	358.481676049026	6.914204686086
0	8762	362.166495909179	3.684819860153
0	8800	363.008627250187	0.842131341008
0	8808	363.906778251396	0.898151001209
0	8816	364.288557972868	0.381779721472
0	8951	371.071757882453	6.783199909585
0	8986	371.964575085703	0.89281720325
0	8994	372.02731717372	0.062742088017
0	9002	372.257524069489	0.230206895769
0	9040	373.789682381935	1.532158312446
0	9056	375.453735829781	1.664053447846
0	9064	375.697345994325	0.243610164544
0	9080	376.278807982677	0.581461988352
0	9148	380.077545610382	3.798737627705
0	9194	381.889902646231	1.812357035849
0	9286	388.032263084145	6.142360437914
0	9405	390.925718867402	2.893455783257
0	9507	394.079832086194	3.154113218792
0	9620	397.221153081508	3.141320995314
0	9636	397.456232343766	0.235079262258
0	9663	398.55572947381	1.099497130044
0	9779	403.59693482291	5.0412053491
0	9825	407.047388185656	3.450453362746
0	9930	414.361609004278	7.314220818622
0	9957	416.327721812783	1.966112808505
0	9976	416.381643965409	0.053922152626
0	9995	417.537116710112	1.155472744703
0	10003	417.701061473579	0.163944763467
0	10011	417.829996844504	0.128935370925
0	10079	423.469708207988	5.639711363484
0	10117	425.450629779476	1.980921571488
0	10166	428.497478208993	3.046848429517
0	10258	432.171546983006	3.674068774013
0	10379	436.890627164554	4.719080181548
0	10387	437.199361007804	0.30873384325
0	10498	442.640142199451	5.440781191647
0	10514	443.248854915119	0.608712715668
0	10522	443.254990115158	0.006135200039
0	10541	444.452042006126	1.197051890968
0	10603	447.305575311367	2.853533305241
0	10654	450.161767129188	2.856191817821
0	10681	451.116272298048	0.95450516886
0	10765	452.844688013385	1.728415715337
0	10789	453.776566886845	0.93187887346
0	10873	456.56493677623	2.788369889385
0	10916	458.250839267499	1.685902491269
0	11032	466.428730526141	8.177891258642
0	11130	470.569357764109	4.140627237968
0	11138	471.238188651734	0.668830887625
0	11224	474.369305706766	3.131117055032
0	11251	475.175103005761	0.805797298995
0	11294	476.655841251215	1.480738245454
0	11356	479.264149677559	2.608308426344
0	11386	480.297113115243	1.032963437684
0	11443	483.463421850431	3.166308735188
0	11594	489.921641591654	6.458219741223
0	11759	496.037060096017	6.115418504363
0	11837	499.536901795656	3.499841699639
0	11856	499.650199142998	0.113297347342
1	68	0.162922069198	0.0001008
1	76	0.541519187753	6.992e-005
1	95	0.656545077665	9.304e-005
1	103	0.918586714492	6.696e-005
1	111	2.162664585268	9.272e-005
1	130	2.640345101884	6.304e-005
1	171	4.27220397847	7.32e-005
1	179	5.255058096229	7.96e-005
1	198	6.161096812604	6.224e-005
1	206	6.226470531189	8.936e-005
1	214	6.78255324168	8.376e-005
1	222	7.747840820647	8.704e-005
1	230	7.852698717726	7.056e-005
1	238	7.982773196046	7.536e-005
1	246	8.043187282224	5.984e-005
1	254	8.557203895346	5.728e-005
1	262	9.211930829676	9.856e-005
1	270	9.40687968233	6.72e-005
1	278	9.496858642202	9.312e-005
1	286	9.999168763485	6.032e-005
1	316	11.641521288428	0.00010888
1	324	11.737341239136	7.576e-005
1	332	12.06391050199	7.856e-005
1	373	13.138050554314	7.44e-005
1	381	13.375361809042	8.088e-005
1	389	13.556445025381	8.568e-005
1	397	13.918716510603	8.968e-005
1	427	15.187395471464	7.44e-005
1	435	15.222867966034	8.432e-005
1	443	15.327067153996	9.072e-005
1	462	15.69719254982	9.568e-005
1	481	15.796127558523	8.264e-005
1	511	17.010760219222	6.056e-005
1	519	17.030397933119	8.128e-005
1	527	17.0350190763	9.176e-005
1	535	17.509292435166	6.296e-005
1	543	18.128928383238	8.512e-005
1	551	18.225477813716	8.672e-005
1	559	18.242162393155	9.064e-005
1	578	18.51271613257	9.08e-005
1	586	18.754848156121	8.688e-005
1	594	18.824565234111	7.24e-005
1	602	19.244228457214	7.992e-005
1	610	19.777529547214	8.84e-005
1	618	19.81462425602	7.568e-005
1	626	20.403423101698	9.688e-005
1	634	20.638322769043	5e-005
1	642	21.553034096716	7.488e-005
1	650	22.382885199931	9.384e-005
1	658	22.606382367496	7.664e-005
1	666	23.522605381211	5.376e-005
1	674	23.560891874162	8.472e-005
1	682	24.003045415589	7.856e-005
1	690	24.684234858195	7.888e-005
1	698	25.31330730215	8.248e-005
1	706	25.314245192362	0.00010288
1	736	26.20499452172	8.248e-005
1	766	28.065583621567	8.992e-005
1	818	29.768096489423	8.528e-005
1	837	30.099580168492	8.12e-005
1	845	30.306386836561	0.0001072
1	853	30.317691567553	9.808e-005
1	861	30.44597078696	7.368e-005
1	869	30.949261192763	6.08e-005
1	877	31.43215409504	8.624e-005
1	885	31.67896922078	6.312e-005
1	893	31.715046162266	9.544e-005
1	901	31.795823667359	0.00010176
1	909	31.842280664775	5.288e-005
1	917	31.901396316112	8.576e-005
1	925	32.1576712536	7.832e-005
1	933	32.682569673281	8.584e-005
1	941	33.015803944503	8.528e-005
1	960	33.458790146351	9.256e-005
1	968	33.763169003043	8.88e-005
1	976	33.91483908461	6.536e-005
1	984	34.008822674937	6.576e-005
1	992	34.130126386721	5.856e-005
1	1000	35.664545743276	7.896e-005
1	1008	35.68064460421	8.008e-005
1	1016	35.800040944904	6.936e-005
1	1035	36.172552637006	5.552e-005
1	1043	36.355130363652	8.384e-005
1	1062	36.474191345714	7.952e-005
1	1070	36.733356483396	9.208e-005
1	1078	36.743893911873	8.368e-005
1	1086	37.23394245345	8.28e-005
1	1094	37.661074385374	7.896e-005
1	1102	38.597319777897	6.976e-005
1	1121	39.199825443183	7.264e-005
1	1151	40.965581746349	8.888e-005
1	1159	41.223508001932	7.456e-005
1	1167	41.398454684311	7.392e-005
1	1175	41.821137842039	6.184e-005
1	1183	42.216250414292	8.32e-005
1	1202	43.354323050585	6.864e-005
1	1243	44.566266254292	0.00010512
1	1251	44.968536593013	7e-005
1	1259	45.334354362859	7.912e-005
1	1267	45.353966046753	6.048e-005
1	1275	45.909480225605	8.672e-005
1	1283	45.966099094275	8.832e-005
1	1324	48.028741864333	9.528e-005
1	1332	48.077366494818	8.088e-005
1	1340	48.762841364884	8.568e-005
1	1348	49.325037110914	7.568e-005
1	1356	50.105704255036	0.00010888
1	1375	50.516966506658	6.936e-005
1	1383	50.850161484198	8.832e-005
1	1402	51.361608873906	7.504e-005
1	1410	51.881523884067	9.512e-005
1	1429	52.525448894226	7.792e-005
1	1437	52.839352887768	8.04e-005
1	1445	52.868053271267	9.008e-005
1	1453	53.288793976598	7.92e-005
1	1461	54.900640671389	7.816e-005
1	1469	55.297788304239	8.608e-005
1	1499	55.991694879775	9.848e-005
1	1507	56.02521094325	7.512e-005
1	1515	56.170906798131	7.56e-005
1	1545	58.613367877102	8.008e-005
1	1564	59.523083958394	6e-005
1	1594	60.015888712341	9.032e-005
1	1602	61.848723974835	0.00010696
1	1610	62.438383542401	7.88e-005
1	1618	62.727757275334	8.552e-005
1	1626	63.606006525316	8.416e-005
1	1634	63.928445761366	9.776e-005
1	1642	64.017434840319	8.288e-005
1	1661	64.66768722263	5.928e-005
1	1680	64.905793074474	8.056e-005
1	1688	65.314417714708	7.88e-005
1	1696	66.753494156725	8.104e-005
1	1704	66.898042003939	8.552e-005
1	1734	68.126996096252	7.72e-005
1	1742	68.308980099896	9.168e-005
1	1761	68.802691638588	6.248e-005
1	1769	69.004673619307	5.944e-005
1	1777	70.04504549488	7.624e-005
1	1785	70.207182849593	0.0001036
1	1815	70.949857161781	6.856e-005
1	1834	71.188423836466	7.792e-005
1	1853	72.930736369511	7.04e-005
1	1872	73.83626319033	7.968e-005
1	1880	74.063190497686	9.44e-005
1	1899	74.277096410481	8.888e-005
1	1929	75.205431090798	5.112e-005
1	1948	75.744290713019	8.072e-005
1	1956	76.110152748578	6.872e-005
1	1964	76.378341873824	0.00010512
1	1972	76.603553603043	8.344e-005
1	1980	77.541891757175	7.08e-005
1	1988	77.6889500144	6.632e-005
1	1996	77.914399749721	9.552e-005
1	2004	78.120990055414	9.464e-005
1	2023	79.746985785009	7.16e-005
1	2031	79.779613644129	9.952e-005
1	2039	80.212362278766	9.112e-005
1	2058	80.484146531373	7.712e-005
1	2077	80.727397110343	9.368e-005
1	2085	80.882550096442	7.912e-005
1	2115	81.226862068665	7.856e-005
1	2123	81.452768468011	6.744e-005
1	2131	82.742654272491	7.72e-005
1	2139	82.821844440537	5.944e-005
1	2147	83.167693709081	8.592e-005
1	2166	85.269324492125	9.752e-005
1	2196	86.328856198621	7.96e-005
1	2215	86.528653712415	8.728e-005
1	2223	87.339483243282	7.76e-005
1	2231	87.371635387187	7.144e-005
1	2239	88.441827657553	7.864e-005
1	2258	89.040942947951	8.264e-005
1	2288	90.982920073304	7.36e-005
1	2296	92.600283187776	8.064e-005
1	2315	93.039522998336	5.536e-005
1	2334	94.048317204305	8.792e-005
1	2342	94.106626370482	8.176e-005
1	2350	95.042085033498	8.392e-005
1	2369	95.752696074566	7.648e-005
1	2388	96.713638002329	8.176e-005
1	2396	96.746641956541	8.96e-005
1	2415	97.600192094819	8.752e-005
1	2423	97.667094494951	9.384e-005
1	2431	97.730381291512	7.872e-005
1	2439	97.837342707969	7.544e-005
1	2447	98.102716177672	8.376e-005
1	2455	98.439029710987	9.848e-005
1	2463	98.90786135826	0.00011352
1	2471	99.084266395027	6.224e-005
1	2501	99.812937369234	8.704e-005
1	2520	100.547994493345	7.128e-005
1	2528	100.745297580263	7.816e-005
1	2580	103.079095380993	8.416e-005
1	2588	104.047947967091	8.552e-005
1	2596	104.307085214871	8.392e-005
1	2604	104.433048616088	6.208e-005
1	2623	105.254948175128	9.16e-005
1	2631	105.427729740548	8.024e-005
1	2639	105.506471750083	7.56e-005
1	2647	105.546843995722	9.224e-005
1	2655	105.662576528691	7.304e-005
1	2663	105.764293696841	9.848e-005
1	2671	106.020508353151	6e-005
1	2679	106.068639278488	9.824e-005
1	2687	106.932125408479	8.832e-005
1	2695	107.074154720509	9.28e-005
1	2703	108.7878667578	7.512e-005
1	2711	108.895494654233	8.24e-005
1	2719	109.076957442337	9.328e-005
1	2760	110.0430635404	6.864e-005
1	2768	110.484030686789	8.896e-005
1	2776	111.162144675967	6.864e-005
1	2795	111.828039473685	7.608e-005
1	2803	112.067398460205	0.00010064
1	2811	113.636255684397	8.048e-005
1	2830	114.330287650031	0.00010368
1	2849	114.602306899391	7.128e-005
1	2879	116.05885539867	9.048e-005
1	2887	116.12823470927	0.00011
1	2917	116.856760079766	7.504e-005
1	2925	117.031071197449	7.8e-005
1	2933	117.374985194044	8.424e-005
1	2941	117.658043636919	7.896e-005
1	2949	118.542359410316	7.912e-005
1	2957	118.616486037413	8.032e-005
1	2965	118.644443208182	7.624e-005
1	2995	119.336707083401	9.704e-005
1	3014	119.781141238823	7.048e-005
1	3022	120.220689258717	7.248e-005
1	3030	120.265976018722	0.00010424
1	3038	120.505092511874	9.96e-005
1	3046	120.619210252988	6.808e-005
1	3054	120.715431655151	0.00010544
1	3073	121.258166840657	7.712e-005
1	3081	121.331839345023	6.616e-005
1	3089	121.886111879213	0.00010448
1	3097	121.981141794546	8.376e-005
1	3105	122.13789793551	0.00010864
1	3113	122.556166404848	8.368e-005
1	3132	123.796274040029	8.424e-005
1	3140	124.954253516332	6.2e-005
1	3170	125.782153724181	8.032e-005
1	3178	126.853347541517	8.384e-005
1	3186	127.123574195515	8.936e-005
1	3194	127.213233719131	0.0001
1	3202	127.49970311116	0.0001068
1	3210	127.616442455347	8.832e-005
1	3245	128.850497317608	9.872e-005
1	3248	128.850536197608	6.88e-005
1	3289	129.502783692693	7.92e-005
1	3297	129.582403830936	7.56e-005
1	3316	130.126351523419	9.28e-005
1	3324	130.149936304059	5.616e-005
1	3332	130.7639718917	8.256e-005
1	3340	131.058059329907	9.384e-005
1	3348	131.17668382152	9.944e-005
1	3367	132.994371118809	8.752e-005
1	3375	133.715363549406	7.576e-005
1	3383	134.624629780581	7.64e-005
1	3391	134.87946417903	7.664e-005
1	3399	134.96272355044	8.584e-005
1	3407	135.243956616064	6.616e-005
1	3426	135.746881865276	7.968e-005
1	3434	138.086249042648	9.232e-005
1	3475	138.693094825655	7.376e-005
1	3494	139.143434894924	8.24e-005
1	3513	139.840661120775	7.568e-005
1	3521	139.98533755116	7.712e-005
1	3529	140.23513902393	7.072e-005
1	3548	141.459112855835	0.00010176
1	3556	141.484276186994	9.832e-005
1	3564	141.793386851256	9.728e-005
1	3572	142.246339346674	7.864e-005
1	3591	144.163719106555	8.496e-005
1	3610	144.5472775878	8.296e-005
1	3618	145.2425003904	8.696e-005
1	3626	145.420518616617	9.912e-005
1	3634	146.004666583777	7.128e-005
1	3642	146.419305647003	8.352e-005
1	3650	146.736286135525	0.0001076
1	3658	147.831664964444	8.056e-005
1	3666	147.832258052592	8.392e-005
1	3674	147.948051302827	0.00010304
1	3682	148.248800906999	8.256e-005
1	3690	148.450160896391	8.432e-005
1	3698	148.518500413677	6.04e-005
1	3706	148.523050004977	9.248e-005
1	3747	149.406636891582	8.408e-005
1	3755	149.630473381827	9.04e-005
1	3763	149.64800978725	7.992e-005
1	3793	150.943502293319	9.4e-005
1	3834	151.878711915595	9.928e-005
1	3842	152.644097160219	8.928e-005
1	3861	152.933511494696	8.152e-005
1	3869	154.418503215651	5.768e-005
1	3877	154.546451696685	9.504e-005
1	3885	155.326520835926	8.504e-005
1	3893	155.714980546349	9.848e-005
1	3912	156.864931625386	7.088e-005
1	3920	157.371375102862	5.464e-005
1	3928	157.64736733383	8.552e-005
1	3936	157.950094861712	7.12e-005
1	3944	158.222041999494	7.096e-005
1	3952	158.425285719303	7.392e-005
1	3960	159.344126669192	7.664e-005
1	3968	159.553808307969	7.616e-005
1	3976	160.098479684097	9.704e-005
1	3995	160.631733846607	8.68e-005
1	4025	160.90230231477	7.488e-005
1	4044	161.664087022744	9.056e-005
1	4063	162.879436753303	5.784e-005
1	4071	163.353139798857	8.44e-005
1	4079	163.788623178599	7.112e-005
1	4109	165.493236426995	9.328e-005
1	4117	165.896422976938	0.0001012
1	4136	167.213178821666	7.584e-005
1	4144	167.251238084548	8.136e-005
1	4163	167.758257798376	8.352e-005
1	4171	167.898834146255	8.424e-005
1	4179	167.96337770443	8.216e-005
1	4187	168.343397834354	8.328e-005
1	4195	168.453265850933	7.312e-005
1	4214	170.019979018195	8.048e-005
1	4222	170.346032591541	7.12e-005
1	4241	171.701179068467	9.336e-005
1	4260	172.048345676271	7.392e-005
1	4290	174.721068270767	9.728e-005
1	4298	175.073139973702	8.224e-005
1	4328	177.083902078472	7.04e-005
1	4336	177.730977743457	7.08e-005
1	4355	177.980706059762	8.208e-005
1	4385	179.669154613597	9.144e-005
1	4404	180.984312206095	8.312e-005
1	4423	181.607079723492	8.4e-005
1	4442	182.509865799976	6.856e-005
1	4461	182.915561194372	8.712e-005
1	4469	182.969453804459	9.376e-005
1	4477	183.157556681053	9.464e-005
1	4485	183.258179242035	8.88e-005
1	4493	183.282275699867	7.424e-005
1	4512	184.031661516736	8.016e-005
1	4520	184.932856831381	7.944e-005
1	4528	184.998426324293	6.896e-005
1	4536	185.192137716599	9.224e-005
1	4544	185.240342621692	7.896e-005
1	4552	185.392545976292	4.936e-005
1	4560	185.794564329335	7.104e-005
1	4568	186.481953059788	8.512e-005
1	4587	186.982175375012	0.00011464
1	4606	187.690060872133	0.0001072
1	4614	187.926092688348	8.6e-005
1	4622	188.344100518672	6.528e-005
1	4630	188.384605202495	8.576e-005
1	4638	188.81249838663	7.976e-005
1	4646	189.366856657013	8.624e-005
1	4654	190.403209978854	7.016e-005
1	4662	190.430126815724	8.384e-005
1	4670	190.717426751271	8.472e-005
1	4700	192.027942887126	8.856e-005
1	4708	192.350205524121	8.304e-005
1	4716	192.435708446296	6.712e-005
1	4735	192.727402587452	7.088e-005
1	4743	192.757976845764	7.768e-005
1	4762	193.628709490936	8.368e-005
1	4814	195.996004426861	7.792e-005
1	4822	196.055969350177	8.736e-005
1	4830	196.427635438838	9.032e-005
1	4838	196.73296785936	0.00010264
1	4846	196.757888943881	7.008e-005
1	4854	197.266184102817	0.00010296
1	4873	198.88277461349	8e-005
1	4881	198.96612795729	7.816e-005
1	4889	199.53631625469	6.992e-005
1	4897	199.716147668749	7.296e-005
1	4905	200.054000947949	7.728e-005
1	4913	200.392679487055	8.056e-005
1	4954	200.904068336386	8.488e-005
1	4962	201.476744838718	8.208e-005
1	4970	202.43147385493	8.616e-005
1	4978	203.057773537758	6.768e-005
1	4986	203.313107783273	8.24e-005
1	4994	204.172565021378	6.408e-005
1	5013	205.080665590376	8.76e-005
1	5032	205.475800571117	6.304e-005
1	5040	205.51003494705	7.528e-005
1	5048	205.747398025895	8.128e-005
1	5067	206.135118612614	9.288e-005
1	5075	206.383906213949	8.928e-005
1	5094	206.838511912014	8.08e-005
1	5102	206.85264529602	6.432e-005
1	5121	208.327081056237	8.648e-005
1	5140	209.376988383917	8.296e-005
1	5148	209.868798486456	7.904e-005
1	5156	210.198093931418	8.808e-005
1	5164	211.827781826976	8.816e-005
1	5172	213.182994247562	8.128e-005
1	5180	213.542405891914	8.32e-005
1	5199	214.283157987368	8.6e-005
1	5218	215.230866976777	7.752e-005
1	5270	217.641262791903	8.856e-005
1	5278	217.78044331128	0.00010928
1	5286	218.094931262856	7.248e-005
1	5305	219.31227354775	7.792e-005
1	5313	219.470866585274	7.344e-005
1	5321	219.87498324065	9.456e-005
1	5329	220.067531630747	9.336e-005
1	5337	220.601339577971	8.216e-005
1	5389	222.832995640617	8.328e-005
1	5408	222.878343935516	9.704e-005
1	5416	223.391188657279	6.808e-005
1	5424	223.824027263412	8.6e-005
1	5432	224.293846640913	9.536e-005
1	5440	224.331055548954	6.472e-005
1	5448	224.718914772552	8.08e-005
1	5456	225.161553323928	7.872e-005
1	5464	225.460728652627	8.152e-005
1	5472	225.505211623297	0.0001008
1	5480	225.598034856962	0.00011192
1	5510	226.756464245928	7.736e-005
1	5518	226.776795282047	7.728e-005
1	5526	226.781206875413	8.536e-005
1	5534	227.381489019486	7.328e-005
1	5542	227.961411067579	7.392e-005
1	5561	229.038626108574	9.096e-005
1	5569	229.311156528443	7.336e-005
1	5577	230.187650545821	8.864e-005
1	5596	230.489852636826	6.392e-005
1	5604	230.567438942074	9.64e-005
1	5612	230.650092859141	7.344e-005
1	5620	231.630780009868	6.408e-005
1	5650	232.27118255783	8.32e-005
1	5658	232.736090601735	8.304e-005
1	5677	233.349387928513	7.456e-005
1	5696	237.040989854722	8.816e-005
1	5704	237.205903525148	8.672e-005
1	5712	237.285051765099	9.344e-005
1	5775	238.618649559329	8.48e-005
1	5783	238.878739349846	8.264e-005
1	5791	239.059094885601	9.44e-005
1	5810	241.448039033607	8.736e-005
1	5818	242.544711551896	7.304e-005
1	5826	242.647604734341	8.616e-005
1	5856	243.388257272199	9.072e-005
1	5864	243.706956234821	6.936e-005
1	5872	244.305846452135	8.944e-005
1	5880	244.50745338478	9.112e-005
1	5888	244.614716762217	9.392e-005
1	5896	244.857702992383	7.52e-005
1	5904	244.967755204448	7.744e-005
1	5912	245.167198132385	9.344e-005
1	5942	245.983537162004	6.496e-005
1	5950	246.879016500169	7.824e-005
1	5969	247.343152374645	8.688e-005
1	5977	247.917556335087	8.544e-005
1	6007	249.1773415773	9.12e-005
1	6015	249.766706070489	7.744e-005
1	6023	250.115619929441	7.216e-005
1	6031	250.223379738012	9.456e-005
1	6039	250.256320538308	8.528e-005
1	6047	250.29387643209	8.424e-005
1	6066	253.327185224786	0.00010744
1	6074	254.215832625193	8.672e-005
1	6093	255.491708884157	6.784e-005
1	6112	256.144821266638	8.536e-005
1	6142	257.243186399275	7.76e-005
1	6194	257.925463608101	6.528e-005
1	6213	258.485877306382	9.776e-005
1	6221	260.233825746944	7.256e-005
1	6229	261.503029790565	9.208e-005
1	6237	261.786190990888	8.608e-005
1	6245	261.794426680505	9.376e-005
1	6275	262.624160181106	7.544e-005
1	6283	262.640704501161	8.464e-005
1	6291	262.982548952569	8.2e-005
1	6299	263.030433861327	8.112e-005
1	6307	263.284584366428	7.728e-005
1	6315	263.378380312879	7.472e-005
1	6323	263.4621106904	5.944e-005
1	6331	263.488832708411	7.52e-005
1	6339	263.570759566509	9.144e-005
1	6347	263.599354426801	9.104e-005
1	6355	263.746144733595	7.488e-005
1	6363	264.204851293824	6.776e-005
1	6382	264.86923667436	9.528e-005
1	6390	265.417058015355	6.792e-005
1	6398	266.039525626123	0.00010392
1	6406	266.329537083554	7.648e-005
1	6414	266.382999765737	7.888e-005
1	6422	266.912106907291	8.816e-005
1	6430	267.121266989188	8.72e-005
1	6438	267.208888253913	9.472e-005
1	6446	267.311242135428	0.00010768
1	6454	267.386366357388	6.368e-005
1	6506	269.607244161173	5.96e-005
1	6525	270.635733408681	5.168e-005
1	6555	272.216391902701	7.824e-005
1	6574	272.966465337868	7.424e-005
1	6582	273.117357659343	8.328e-005
1	6590	273.137329733885	6.968e-005
1	6598	273.547050045273	7.576e-005
1	6606	273.841980778586	8.016e-005
1	6614	274.085006035791	7.016e-005
1	6622	274.339319271744	8.216e-005
1	6641	274.764357662427	7.888e-005
1	6649	274.806562770244	5.976e-005
1	6657	274.988276972929	0.00010064
1	6665	275.165339043704	7.464e-005
1	6673	275.332437927652	8.752e-005
1	6681	275.579139942412	0.00010792
1	6689	275.620885004653	7.624e-005
1	6697	275.627519495306	8.352e-005
1	6705	275.635130119	6.976e-005
1	6713	275.805185520764	7.96e-005
1	6721	275.950149030801	7.68e-005
1	6729	276.824059934495	9.152e-005
1	6759	277.024305359861	0.00011104
1	6767	277.470065140109	7.592e-005
1	6775	278.650129940644	7.736e-005
1	6783	278.937832602721	8.304e-005
1	6791	279.011451518702	8.264e-005
1	6821	279.799857062854	8.664e-005
1	6829	279.905294642059	0.00010552
1	6837	280.807484618274	0.0001036
1	6845	281.128485252119	6.992e-005
1	6853	281.399104111322	7.776e-005
1	6861	281.930605292842	7.088e-005
1	6869	282.275769574294	6.512e-005
1	6888	282.693733885278	8.232e-005
1	6896	282.911956613229	8.68e-005
1	6904	283.031797890254	8.608e-005
1	6912	283.171959254616	8.176e-005
1	6920	284.667794316357	7.784e-005
1	6928	285.535413847486	7.8e-005
1	6936	286.032670818066	8.056e-005
1	6944	286.5366829199	7.248e-005
1	6985	289.64923698423	0.00010256
1	7004	291.28677578891	8.888e-005
1	7012	291.295256182409	8.12e-005
1	7053	293.745918898804	7.888e-005
1	7072	294.125606613074	9.28e-005
1	7080	294.168657974428	6.328e-005
1	7088	294.458476495088	8.984e-005
1	7107	294.78894091521	0.00010248
1	7148	296.312460386488	7.664e-005
1	7156	296.869925425518	8.008e-005
1	7164	296.992233819804	8.4e-005
1	7172	297.394300372577	8.536e-005
1	7180	298.044576286739	7.368e-005
1	7188	298.106279563705	9.56e-005
1	7207	298.750195947365	8.792e-005
1	7215	299.124208253065	6.912e-005
1	7223	299.361145994303	7.248e-005
1	7231	299.68938805153	0.00010192
1	7239	299.917151203646	7.136e-005
1	7247	300.263911980425	8.152e-005
1	7255	302.176456443833	9.592e-005
1	7274	302.765412204541	7.056e-005
1	7293	303.873942949647	8.208e-005
1	7301	304.489257559246	9.72e-005
1	7320	305.702866078683	7.84e-005
1	7339	306.119156033597	8.16e-005
1	7380	307.454246877319	8.224e-005
1	7388	307.975052708258	9.568e-005
1	7407	308.82193963346	9.528e-005
1	7415	309.027274849095	6.048e-005
1	7423	309.276319925759	8.656e-005
1	7431	309.794351629539	6.6e-005
1	7450	310.904905078163	7.36e-005
1	7458	311.028293175273	7.08e-005
1	7477	311.328760745127	7.64e-005
1	7485	311.899403429651	0.0001028
1	7493	312.049101399185	9.12e-005
1	7501	312.461776807568	8.072e-005
1	7509	313.664201726927	9.36e-005
1	7517	313.725981709785	6.864e-005
1	7536	314.641514517938	7.464e-005
1	7544	314.985342556255	6.384e-005
1	7552	315.194305815427	7.488e-005
1	7560	315.612299980066	7.776e-005
1	7568	316.042735835207	7.896e-005
1	7576	316.188546700131	8.2e-005
1	7584	316.714857744806	0.00010216
1	7592	317.376469898768	7.688e-005
1	7633	318.934934022351	9.944e-005
1	7641	319.540566258582	8.264e-005
1	7649	320.38575701373	8.072e-005
1	7657	320.452252981004	8.232e-005
1	7709	320.792427836879	7.256e-005
1	7717	320.995932371054	8.136e-005
1	7725	321.025884499147	8.736e-005
1	7744	321.818694599339	8.584e-005
1	7763	322.574153661835	0.00010208
1	7771	323.01123744567	8.248e-005
1	7779	323.243169018167	7.12e-005
1	7787	323.876747386573	9.816e-005
1	7795	324.429000493683	8.528e-005
1	7803	324.509740465934	6.728e-005
1	7811	324.517755090269	7.88e-005
1	7819	325.668527510327	8.136e-005
1	7827	325.848886924901	8.776e-005
1	7857	326.702146363246	7.744e-005
1	7865	326.719372285733	9.512e-005
1	7873	327.270352128032	5.784e-005
1	7881	327.465865878834	7.168e-005
1	7889	327.485415595708	9.056e-005
1	7897	328.074465688605	6.184e-005
1	7905	328.083256455528	8.016e-005
1	7913	329.324210850033	8.208e-005
1	7943	330.004047795688	8.776e-005
1	7951	330.870567284618	8.952e-005
1	7981	331.727440033165	8.264e-005
1	7989	331.834778411703	7.792e-005
1	7997	332.68837998282	9.096e-005
1	8016	333.44923074654	9.112e-005
1	8024	334.277655303033	8.64e-005
1	8043	334.985932446754	0.00011792
1	8051	335.007978412612	9.224e-005
1	8059	335.087104425002	7.856e-005
1	8067	335.301642132838	7.544e-005
1	8075	335.518187640292	0.00010488
1	8094	335.969399765519	7.6e-005
1	8124	337.594955717869	9.896e-005
1	8132	337.984719175157	7.08e-005
1	8140	337.988405469802	8.392e-005
1	8148	338.157257536642	0.00010128
1	8156	338.477508685831	8.024e-005
1	8175	339.401239712801	8.032e-005
1	8183	339.470030860084	6.336e-005
1	8191	341.015475692121	7.752e-005
1	8199	341.19355750537	7.816e-005
1	8207	341.395870561098	8.48e-005
1	8215	341.478575080199	8.592e-005
1	8234	342.424008597855	7.296e-005
1	8253	342.667682625609	8.768e-005
1	8283	344.0450432047	8.656e-005
1	8291	344.317073575198	7.168e-005
1	8299	344.823170798007	5.92e-005
1	8307	344.829136468481	8.296e-005
1	8337	344.904521615031	8.624e-005
1	8345	345.642876171071	0.00011232
1	8353	346.530813076429	7.904e-005
1	8361	346.933995467528	9.888e-005
1	8369	347.051834686913	0.00010344
1	8388	347.695793906514	8.72e-005
1	8396	347.764284166387	5.728e-005
1	8404	348.02158202628	0.00010152
1	8412	348.210786587331	6.912e-005
1	8431	348.538057789985	7.784e-005
1	8450	350.595855925598	8.032e-005
1	8458	350.694264884718	8.168e-005
1	8466	350.948560347634	6.28e-005
1	8474	351.09830473191	6.144e-005
1	8482	351.300370088703	7.808e-005
1	8490	351.350955696859	6.616e-005
1	8498	351.56747136294	6.136e-005
1	8506	351.599382569991	8.312e-005
1	8514	352.055250068827	8.344e-005
1	8522	352.412414947274	8.6e-005
1	8530	353.182463813359	6.528e-005
1	8538	353.46434787645	7.144e-005
1	8546	353.703109251105	7.96e-005
1	8598	355.505224694263	7.968e-005
1	8617	356.73062250478	8.912e-005
1	8625	357.173939523004	0.00010152
1	8633	357.193453532076	7.272e-005
1	8652	357.553810302813	6.832e-005
1	8682	357.842333691991	8.936e-005
1	8690	357.934599818524	8.84e-005
1	8698	358.481676049026	6.96e-005
1	8706	359.434956045774	8.304e-005
1	8714	360.177368857219	7.944e-005
1	8722	360.391401411742	8.512e-005
1	8730	361.414521866749	9.384e-005
1	8738	361.43685576071	6.592e-005
1	8746	361.788649640371	0.00010208
1	8754	362.049210019996	8.56e-005
1	8762	362.166495909179	9.088e-005
1	8792	362.668644695634	8.92e-005
1	8800	363.008627250187	8.408e-005
1	8808	363.906778251396	8.128e-005
1	8816	364.288557972868	9.664e-005
1	8846	366.133219684203	8.144e-005
1	8854	366.475220047832	8.656e-005
1	8862	368.265332128768	9.32e-005
1	8870	368.593724224917	7.304e-005
1	8878	368.653102438057	8.472e-005
1	8897	368.952721237737	0.00010704
1	8905	369.386162600086	7.672e-005
1	8913	369.480035751944	8.312e-005
1	8921	369.674788937902	6.424e-005
1	8951	371.071757882453	5.672e-005
1	8970	371.246915514913	8.992e-005
1	8978	371.720814828241	8.008e-005
1	8986	371.964575085703	8.24e-005
1	8994	372.02731717372	8.04e-005
1	9002	372.257524069489	6.952e-005
1	9021	372.468048480457	7.096e-005
1	9040	373.789682381935	7.408e-005
1	9048	374.229033255796	8.56e-005
1	9056	375.453735829781	9.2e-005
1	9064	375.697345994325	7.904e-005
1	9072	376.206602542435	7.552e-005
1	9080	376.278807982677	6.896e-005
1	9110	378.7744470634	8.224e-005
1	9118	378.885189099377	6.664e-005
1	9148	380.077545610382	6.6e-005
1	9156	380.626975598281	7.128e-005
1	9186	381.009846481172	7.792e-005
1	9194	381.889902646231	9.024e-005
1	9202	382.694076291964	9.88e-005
1	9243	384.328764534775	7.992e-005
1	9251	384.920561663096	7.616e-005
1	9259	385.69804758282	7.904e-005
1	9278	387.770398646776	9.248e-005
1	9286	388.032263084145	5.448e-005
1	9294	388.04488280555	8.296e-005
1	9324	388.882218380373	9.888e-005
1	9343	389.804214707963	9.256e-005
1	9362	390.369287813255	7.92e-005
1	9370	390.593991770051	8.336e-005
1	9389	390.845474235965	7.024e-005
1	9397	390.913300609603	8.44e-005
1	9405	390.925718867402	8.72e-005
1	9413	391.448134610929	5.928e-005
1	9421	391.658947220294	8.352e-005
1	9429	391.985431924427	9.656e-005
1	9437	392.173459144936	7.776e-005
1	9445	392.49500932245	5.472e-005
1	9453	393.22101384123	7.88e-005
1	9472	393.400631759731	8.296e-005
1	9491	393.617983054687	8.12e-005
1	9499	393.930618693707	8.728e-005
1	9507	394.079832086194	8.488e-005
1	9537	394.621572534996	0.00010608
1	9545	395.361897518435	6.352e-005
1	9553	395.419174494453	7.152e-005
1	9561	395.519843782858	8.792e-005
1	9580	396.349391757864	7.192e-005
1	9588	396.358165005549	9.536e-005
1	9596	396.689436457743	7.248e-005
1	9604	396.965730896935	8.408e-005
1	9612	397.103631908846	7.776e-005
1	9620	397.221153081508	8.112e-005
1	9628	397.350393014457	8.472e-005
1	9636	397.456232343766	6.68e-005
1	9644	397.93799936767	7.216e-005
1	9663	398.55572947381	8.016e-005
1	9671	398.701082232863	7.128e-005
1	9701	400.770468591277	7.872e-005
1	9709	401.026274558655	6.744e-005
1	9717	401.495590062571	7.24e-005
1	9725	402.569620531973	8.984e-005
1	9733	402.736469666389	0.00010336
1	9752	403.05230122948	6.984e-005
1	9771	403.446190643541	8.984e-005
1	9779	403.59693482291	8.6e-005
1	9798	404.787402299358	7.872e-005
1	9817	405.864398381117	8.376e-005
1	9825	407.047388185656	0.00010176
1	9833	407.422621213828	9.496e-005
1	9852	408.501575949788	7.328e-005
1	9860	408.687695684984	7.544e-005
1	9868	409.267226889565	6.952e-005
1	9876	409.388239798606	7.048e-005
1	9906	411.07832012622	0.00010168
1	9914	412.750850420602	7.976e-005
1	9922	412.9332672319	8.728e-005
1	9930	414.361609004278	9.416e-005
1	9938	415.543765519313	5.464e-005
1	9957	416.327721812783	7.016e-005
1	9976	416.381643965409	6.296e-005
1	9995	417.537116710112	8.432e-005
1	10003	417.701061473579	7.312e-005
1	10011	417.829996844504	7.472e-005
1	10030	419.624957992953	8.256e-005
1	10071	423.400690149913	9.112e-005
1	10079	423.469708207988	6.768e-005
1	10109	424.993245167941	8.824e-005
1	10117	425.450629779476	7.504e-005
1	10158	428.245771115807	0.00010152
1	10166	428.497478208993	8.192e-005
1	10185	428.970491404891	8.096e-005
1	10215	429.329925654785	9.64e-005
1	10223	429.535688986369	9.8e-005
1	10242	431.211578486829	5.072e-005
1	10250	431.909996757449	6.968e-005
1	10258	432.171546983006	7.8e-005
1	10277	433.088622279458	8.376e-005
1	10285	433.136856472214	7.216e-005
1	10293	433.404534125759	0.0001084
1	10301	433.423457893206	7.976e-005
1	10309	433.661661510016	8.272e-005
1	10328	434.058567481953	9.936e-005
1	10336	434.175524258201	8.784e-005
1	10344	435.314154114008	7.792e-005
1	10352	435.688247526834	9.4e-005
1	10371	436.779685621031	7.64e-005
1	10379	436.890627164554	7.464e-005
1	10387	437.199361007804	8.84e-005
1	10406	438.118396220246	8.016e-005
1	10414	439.817562530601	7.6e-005
1	10433	440.393644905487	7.304e-005
1	10463	440.984221237515	6.552e-005
1	10482	442.124161470943	8.896e-005
1	10490	442.31856835092	9.032e-005
1	10498	442.640142199451	0.00010896
1	10506	443.188547255822	6.544e-005
1	10514	443.248854915119	8.24e-005
1	10522	443.254990115158	8.92e-005
1	10541	444.452042006126	7.616e-005
1	10549	445.002623960416	9.032e-005
1	10579	446.214315706607	9.352e-005
1	10587	446.521439300321	7.896e-005
1	10595	446.648026102489	8.032e-005
1	10603	447.305575311367	8.744e-005
1	10622	448.594797720486	9.232e-005
1	10630	449.100379443298	9.168e-005
1	10638	449.417071717368	8.112e-005
1	10646	449.423978736629	7.528e-005
1	10654	450.161767129188	9.376e-005
1	10662	450.287757046088	8.784e-005
1	10681	451.116272298048	7.84e-005
1	10722	452.010864816728	5.928e-005
1	10730	452.367504995631	7.504e-005
1	10749	452.778666054808	7.04e-005
1	10757	452.787235896566	9.176e-005
1	10765	452.844688013385	7.824e-005
1	10773	453.161265558768	6.456e-005
1	10781	453.250125591801	9.408e-005
1	10789	453.776566886845	8.144e-005
1	10797	453.785684567948	7.592e-005
1	10838	455.238232750719	0.00010224
1	10857	456.097516068144	7.832e-005
1	10865	456.183307886391	7.384e-005
1	10873	456.56493677623	6.408e-005
1	10892	457.407883642144	8.144e-005
1	10900	457.908976808429	6.896e-005
1	10908	458.243797719502	7.064e-005
1	10916	458.250839267499	8.8e-005
1	10924	458.370460183996	7.264e-005
1	10932	459.319213975859	5.48e-005
1	10940	460.027210868665	0.00010144
1	10948	460.112864502283	7.424e-005
1	10956	462.347958928001	5.088e-005
1	10975	462.583946195417	9.752e-005
1	10983	463.369881071251	7.808e-005
1	10991	464.568693264464	7.408e-005
1	11032	466.428730526141	8.168e-005
1	11095	469.093480154214	8.712e-005
1	11103	469.098024094183	9.928e-005
1	11111	469.202812513465	8.648e-005
1	11130	470.569357764109	6.984e-005
1	11138	471.238188651734	9.552e-005
1	11157	472.36764184567	8.336e-005
1	11165	472.696651048371	8.056e-005
1	11173	473.022055878808	9.152e-005
1	11181	473.201192350598	7.64e-005
1	11189	473.487442839932	6.376e-005
1	11197	473.895435770273	7.832e-005
1	11216	474.091373547371	7.216e-005
1	11224	474.369305706766	7.056e-005
1	11232	475.033086196166	7.056e-005
1	11251	475.175103005761	6.464e-005
1	11259	475.50967070487	8.36e-005
1	11267	476.174055810413	8.08e-005
1	11275	476.487968409679	8.928e-005
1	11294	476.655841251215	7.784e-005
1	11302	477.465495475001	9.184e-005
1	11321	478.476238576762	8.16e-005
1	11340	478.609547460186	6.528e-005
1	11348	479.216190701498	5.4e-005
1	11356	479.264149677559	8.792e-005
1	11386	480.297113115243	0.00010512
1	11394	481.186036488956	6.792e-005
1	11402	481.698259953091	6.56e-005
1	11443	483.463421850431	7.96e-005
1	11462	485.410223760341	9.68e-005
1	11470	485.799592897979	0.00010488
1	11478	486.383359913345	6.24e-005
1	11486	486.477566020527	8.8e-005
1	11505	487.372778631699	8.152e-005
1	11513	487.654987380141	7.408e-005
1	11521	487.994732924924	6.144e-005
1	11529	488.216580087583	7.192e-005
1	11548	489.005264324092	8.432e-005
1	11578	489.594862754058	6.904e-005
1	11586	489.761419901964	7.96e-005
1	11594	489.921641591654	8.28e-005
1	11602	489.930334519011	7.512e-005
1	11610	490.153925791627	5.024e-005
1	11618	490.396489503955	8.512e-005
1	11637	492.495122006921	8.712e-005
1	11667	493.521865475752	8.048e-005
1	11686	493.785977393166	7.592e-005
1	11694	493.966127921632	7.872e-005
1	11724	494.882251611495	0.00010216
1	11732	495.535837467301	6.192e-005
1	11751	495.842761018447	7.672e-005
1	11759	496.037060096017	6.832e-005
1	11767	496.351386957601	9.672e-005
1	11775	496.503445526844	8.776e-005
1	11794	498.113189114562	8.2e-005
1	11802	498.13610861481	8.416e-005
1	11810	498.260767083458	8.992e-005
1	11818	498.829041418596	8.512e-005
1	11837	499.536901795656	8.28e-005
1	11856	499.650199142998	6.768e-005
2	76	0.541519187753	0.541519187753
2	111	2.162664585268	1.621145397515
2	179	5.255058096229	3.092393510961
2	198	6.161096812604	0.906038716375
2	238	7.982773196046	1.821676383442
2	373	13.138050554314	5.155277358268
2	397	13.918716510603	0.780665956289
2	610	19.777529547214	5.858813036611
2	818	29.768096489423	9.990566942209
2	853	30.317691567553	0.54959507813
2	861	30.44597078696	0.128279219407
2	960	33.458790146351	3.012819359391
2	1062	36.474191345714	3.015401199363
2	1086	37.23394245345	0.759751107736
2	1202	43.354323050585	6.120380597135
2	1243	44.566266254292	1.211943203707
2	1259	45.334354362859	0.768088108567
2	1324	48.028741864333	2.694387501474
2	1402	51.361608873906	3.332867009573
2	1507	56.02521094325	4.663602069344
2	1545	58.613367877102	2.588156933852
2	1602	61.848723974835	3.235356097733
2	1688	65.314417714708	3.465693739873
2	1704	66.898042003939	1.583624289231
2	1742	68.308980099896	1.410938095957
2	1777	70.04504549488	1.736065394984
2	1815	70.949857161781	0.904811666901
2	1853	72.930736369511	1.98087920773
2	1899	74.277096410481	1.34636004097
2	1972	76.603553603043	2.326457192562
2	1980	77.541891757175	0.938338154132
2	2131	82.742654272491	5.200762515316
2	2166	85.269324492125	2.526670219634
2	2196	86.328856198621	1.059531706496
2	2215	86.528653712415	0.199797513794
2	2231	87.371635387187	0.842981674772
2	2334	94.048317204305	6.676681817118
2	2342	94.106626370482	0.058309166177
2	2350	95.042085033498	0.935458663016
2	2415	97.600192094819	2.558107061321
2	2455	98.439029710987	0.838837616168
2	2647	105.546843995722	7.107814284735
2	2760	110.0430635404	4.496219544678
2	2811	113.636255684397	3.593192143997
2	2830	114.330287650031	0.694031965634
2	2849	114.602306899391	0.27201924936
2	2879	116.05885539867	1.456548499279
2	2933	117.374985194044	1.316129795374
2	2949	118.542359410316	1.167374216272
2	3022	120.220689258717	1.678329848401
2	3089	121.886111879213	1.665422620496
2	3105	122.13789793551	0.251786056297
2	3113	122.556166404848	0.418268469338
2	3140	124.954253516332	2.398087111484
2	3170	125.782153724181	0.827900207849
2	3202	127.49970311116	1.717549386979
2	3210	127.616442455347	0.116739344187
2	3248	128.850536197608	1.234093742261
2	3340	131.058059329907	2.207523132299
2	3407	135.243956616064	4.185897286157
2	3513	139.840661120775	4.596704504711
2	3521	139.98533755116	0.144676430385
2	3548	141.459112855835	1.473775304675
2	3642	146.419305647003	4.960192791168
2	3666	147.832258052592	1.412952405589
2	3674	147.948051302827	0.115793250235
2	3690	148.450160896391	0.502109593564
2	3763	149.64800978725	1.197848890859
2	3793	150.943502293319	1.295492506069
2	3834	151.878711915595	0.935209622276
2	3861	152.933511494696	1.054799579101
2	3869	154.418503215651	1.484991720955
2	3920	157.371375102862	2.952871887211
2	3936	157.950094861712	0.57871975885
2	3952	158.425285719303	0.475190857591
2	4025	160.90230231477	2.477016595467
2	4214	170.019979018195	9.117676703425
2	4260	172.048345676271	2.028366658076
2	4336	177.730977743457	5.682632067186
2	4423	181.607079723492	3.876101980035
2	4461	182.915561194372	1.30848147088
2	4477	183.157556681053	0.241995486681
2	4485	183.258179242035	0.100622560982
2	4544	185.240342621692	1.982163379657
2	4568	186.481953059788	1.241610438096
2	4587	186.982175375012	0.500222315224
2	4614	187.926092688348	0.943917313336
2	4630	188.384605202495	0.458512514147
2	4646	189.366856657013	0.982251454518
2	4670	190.717426751271	1.350570094258
2	4743	192.757976845764	2.040550094493
2	4822	196.055969350177	3.297992504413
2	4881	198.96612795729	2.910158607113
2	4889	199.53631625469	0.5701882974
2	4897	199.716147668749	0.179831414059
2	4905	200.054000947949	0.3378532792
2	4913	200.392679487055	0.338678539106
2	5140	209.376988383917	8.984308896862
2	5148	209.868798486456	0.491810102539
2	5218	215.230866976777	5.362068490321
2	5270	217.641262791903	2.410395815126
2	5432	224.293846640913	6.65258384901
2	5440	224.331055548954	0.037208908041
2	5561	229.038626108574	4.70757055962
2	5569	229.311156528443	0.272530419869
2	5596	230.489852636826	1.178696108383
2	5775	238.618649559329	8.128796922503
2	5810	241.448039033607	2.829389474278
2	5880	244.50745338478	3.059414351173
2	5977	247.917556335087	3.410102950307
2	6093	255.491708884157	7.57415254907
2	6112	256.144821266638	0.653112382481
2	6142	257.243186399275	1.098365132637
2	6237	261.786190990888	4.543004591613
2	6245	261.794426680505	0.008235689617
2	6291	262.982548952569	1.188122272064
2	6307	263.284584366428	0.302035413859
2	6339	263.570759566509	0.286175200081
2	6438	267.208888253913	3.638128687404
2	6598	273.547050045273	6.33816179136
2	6681	275.579139942412	2.032089897139
2	6697	275.627519495306	0.048379552894
2	6721	275.950149030801	0.322629535495
2	6821	279.799857062854	3.849708032053
2	6837	280.807484618274	1.00762755542
2	6853	281.399104111322	0.591619493048
2	6912	283.171959254616	1.772855143294
2	7004	291.28677578891	8.114816534294
2	7012	291.295256182409	0.008480393499
2	7088	294.458476495088	3.163220312679
2	7107	294.78894091521	0.330464420122
2	7164	296.992233819804	2.203292904594
2	7180	298.044576286739	1.052342466935
2	7458	311.028293175273	12.983716888534
2	7485	311.899403429651	0.871110254378
2	7493	312.049101399185	0.149697969534
2	7501	312.461776807568	0.412675408383
2	7509	313.664201726927	1.202424919359
2	7517	313.725981709785	0.061779982858
2	7552	315.194305815427	1.468324105642
2	7568	316.042735835207	0.84843001978
2	7709	320.792427836879	4.749692001672
2	7771	323.01123744567	2.218809608791
2	7787	323.876747386573	0.865509940903
2	7889	327.485415595708	3.608668209135
2	8148	338.157257536642	10.671841940934
2	8207	341.395870561098	3.238613024456
2	8215	341.478575080199	0.082704519101
2	8490	351.350955696859	9.87238061666
2	8538	353.46434787645	2.113392179591
2	8652	357.553810302813	4.089462426363
2	8722	360.391401411742	2.837591108929
2	8730	361.414521866749	1.023120455007
2	8738	361.43685576071	0.022333893961
2	8746	361.788649640371	0.351793879661
2	8792	362.668644695634	0.879995055263
2	8846	366.133219684203	3.464574988569
2	8870	368.593724224917	2.460504540714
2	8897	368.952721237737	0.35899701282
2	8905	369.386162600086	0.433441362349
2	8913	369.480035751944	0.093873151858
2	8970	371.246915514913	1.766879762969
2	9021	372.468048480457	1.221132965544
2	9110	378.7744470634	6.306398582943
2	9202	382.694076291964	3.919629228564
2	9389	390.845474235965	8.151397944001
2	9421	391.658947220294	0.813472984329
2	9472	393.400631759731	1.741684539437
2	9491	393.617983054687	0.217351294956
2	9545	395.361897518435	1.743914463748
2	9588	396.358165005549	0.996267487114
2	9596	396.689436457743	0.331271452194
2	9604	396.965730896935	0.276294439192
2	9612	397.103631908846	0.137901011911
2	9833	407.422621213828	10.318989304982
2	9868	409.267226889565	1.844605675737
2	9906	411.07832012622	1.811093236655
2	9922	412.9332672319	1.85494710568
2	9938	415.543765519313	2.610498287413
2	10109	424.993245167941	9.449479648628
2	10158	428.245771115807	3.252525947866
2	10215	429.329925654785	1.084154538978
2	10242	431.211578486829	1.881652832044
2	10250	431.909996757449	0.69841827062
2	10285	433.136856472214	1.226859714765
2	10328	434.058567481953	0.921711009739
2	10336	434.175524258201	0.116956776248
2	10406	438.118396220246	3.942871962045
2	10549	445.002623960416	6.88422774017
2	10595	446.648026102489	1.645402142073
2	10622	448.594797720486	1.946771617997
2	10646	449.423978736629	0.829181016143
2	10749	452.778666054808	3.354687318179
2	10773	453.161265558768	0.38259950396
2	10838	455.238232750719	2.076967191951
2	10857	456.097516068144	0.859283317425
2	10892	457.407883642144	1.310367574
2	10908	458.243797719502	0.835914077358
2	10924	458.370460183996	0.126662464494
2	11165	472.696651048371	14.326190864375
2	11189	473.487442839932	0.790791791561
2	11197	473.895435770273	0.407992930341
2	11216	474.091373547371	0.195937777098
2	11232	475.033086196166	0.941712648795
2	11275	476.487968409679	1.454882213513
2	11302	477.465495475001	0.977527065322
2	11348	479.216190701498	1.750695226497
2	11478	486.383359913345	7.167169211847
2	11513	487.654987380141	1.271627466796
2	11529	488.216580087583	0.561592707442
2	11578	489.594862754058	1.378282666475
2	11602	489.930334519011	0.335471764953
2	11610	490.153925791627	0.223591272616
2	11637	492.495122006921	2.341196215294
2	11732	495.535837467301	3.04071546038
2	11751	495.842761018447	0.306923551146
2	11775	496.503445526844	0.660684508397
3	103	0.918586714492	0.918586714492
3	206	6.226470531189	5.307883816697
3	214	6.78255324168	0.556082710491
3	230	7.852698717726	1.070145476046
3	254	8.557203895346	0.70450517762
3	278	9.496858642202	0.939654746856
3	316	11.641521288428	2.144662646226
3	462	15.69719254982	4.055671261392
3	527	17.0350190763	1.33782652648
3	535	17.509292435166	0.474273358866
3	543	18.128928383238	0.619635948072
3	626	20.403423101698	2.27449471846
3	634	20.638322769043	0.234899667345
3	642	21.553034096716	0.914711327673
3	658	22.606382367496	1.05334827078
3	666	23.522605381211	0.916223013715
3	690	24.684234858195	1.161629476984
3	698	25.31330730215	0.629072443955
3	766	28.065583621567	2.752276319417
3	893	31.715046162266	3.649462540699
3	917	31.901396316112	0.186350153846
3	976	33.91483908461	2.013442768498
3	1008	35.68064460421	1.7658055196
3	1016	35.800040944904	0.119396340694
3	1035	36.172552637006	0.372511692102
3	1043	36.355130363652	0.182577726646
3	1167	41.398454684311	5.043324320659
3	1283	45.966099094275	4.567644409964
3	1410	51.881523884067	5.915424789792
3	1642	64.017434840319	12.135910956252
3	1661	64.66768722263	0.650252382311
3	1680	64.905793074474	0.238105851844
3	1696	66.753494156725	1.847701082251
3	1956	76.110152748578	9.356658591853
3	1988	77.6889500144	1.578797265822
3	2058	80.484146531373	2.795196516973
3	2085	80.882550096442	0.398403565069
3	2288	90.982920073304	10.100369976862
3	2296	92.600283187776	1.617363114472
3	2423	97.667094494951	5.066811307175
3	2439	97.837342707969	0.170248213018
3	2501	99.812937369234	1.975594661265
3	2528	100.745297580263	0.932360211029
3	2580	103.079095380993	2.33379780073
3	2588	104.047947967091	0.968852586098
3	2596	104.307085214871	0.25913724778
3	2631	105.427729740548	1.120644525677
3	2639	105.506471750083	0.078742009535
3	2655	105.662576528691	0.156104778608
3	2663	105.764293696841	0.10171716815
3	2719	109.076957442337	3.312663745496
3	2795	111.828039473685	2.751082031348
3	2803	112.067398460205	0.23935898652
3	2917	116.856760079766	4.789361619561
3	3038	120.505092511874	3.648332432108
3	3073	121.258166840657	0.753074328783
3	3132	123.796274040029	2.538107199372
3	3186	127.123574195515	3.327300155486
3	3194	127.213233719131	0.089659523616
3	3316	130.126351523419	2.913117804288
3	3426	135.746881865276	5.620530341857
3	3529	140.23513902393	4.488257158654
3	3556	141.484276186994	1.249137163064
3	3634	146.004666583777	4.520390396783
3	3698	148.518500413677	2.5138338299
3	3877	154.546451696685	6.027951283008
3	3885	155.326520835926	0.780069139241
3	3912	156.864931625386	1.53841078946
3	3944	158.222041999494	1.357110374108
3	3960	159.344126669192	1.122084669698
3	3968	159.553808307969	0.209681638777
3	3976	160.098479684097	0.544671376128
3	4222	170.346032591541	10.247552907444
3	4328	177.083902078472	6.737869486931
3	4355	177.980706059762	0.89680398129
3	4442	182.509865799976	4.529159740214
3	4536	185.192137716599	2.682271916623
3	4700	192.027942887126	6.835805170527
3	4762	193.628709490936	1.60076660381
3	4838	196.73296785936	3.104258368424
3	4846	196.757888943881	0.024921084521
3	5048	205.747398025895	8.989509082014
3	5102	206.85264529602	1.105247270125
3	5156	210.198093931418	3.345448635398
3	5164	211.827781826976	1.629687895558
3	5172	213.182994247562	1.355212420586
3	5199	214.283157987368	1.100163739806
3	5286	218.094931262856	3.811773275488
3	5337	220.601339577971	2.506408315115
3	5456	225.161553323928	4.560213745957
3	5464	225.460728652627	0.299175328699
3	5472	225.505211623297	0.04448297067
3	5480	225.598034856962	0.092823233665
3	5510	226.756464245928	1.158429388966
3	5542	227.961411067579	1.204946821651
3	5577	230.187650545821	2.226239478242
3	5604	230.567438942074	0.379788396253
3	5818	242.544711551896	11.977272609822
3	5856	243.388257272199	0.843545720303
3	5864	243.706956234821	0.318698962622
3	5888	244.614716762217	0.907760527396
3	5904	244.967755204448	0.353038442231
3	5942	245.983537162004	1.015781957556
3	5969	247.343152374645	1.359615212641
3	6031	250.223379738012	2.880227363367
3	6066	253.327185224786	3.103805486774
3	6213	258.485877306382	5.158692081596
3	6221	260.233825746944	1.747948440562
3	6347	263.599354426801	3.365528679857
3	6390	265.417058015355	1.817703588554
3	6414	266.382999765737	0.965941750382
3	6422	266.912106907291	0.529107141554
3	6454	267.386366357388	0.474259450097
3	6506	269.607244161173	2.220877803785
3	6614	274.085006035791	4.477761874618
3	6705	275.635130119	1.550124083209
3	6729	276.824059934495	1.188929815495
3	6767	277.470065140109	0.646005205614
3	6791	279.011451518702	1.541386378593
3	6928	285.535413847486	6.523962328784
3	6936	286.032670818066	0.49725697058
3	7053	293.745918898804	7.713248080738
3	7072	294.125606613074	0.37968771427
3	7207	298.750195947365	4.624589334291
3	7215	299.124208253065	0.3740123057
3	7231	299.68938805153	0.565179798465
3	7239	299.917151203646	0.227763152116
3	7247	300.263911980425	0.346760776779
3	7255	302.176456443833	1.912544463408
3	7380	307.454246877319	5.277790433486
3	7415	309.027274849095	1.573027971776
3	7423	309.276319925759	0.249045076664
3	7431	309.794351629539	0.51803170378
3	7536	314.641514517938	4.847162888399
3	7560	315.612299980066	0.970785462128
3	7576	316.188546700131	0.576246720065
3	7641	319.540566258582	3.352019558451
3	7717	320.995932371054	1.455366112472
3	7744	321.818694599339	0.822762228285
3	7779	323.243169018167	1.424474418828
3	7827	325.848886924901	2.605717906734
3	7857	326.702146363246	0.853259438345
3	7873	327.270352128032	0.568205764786
3	7951	330.870567284618	3.600215156586
3	7981	331.727440033165	0.856872748547
3	8016	333.44923074654	1.721790713375
3	8024	334.277655303033	0.828424556493
3	8051	335.007978412612	0.730323109579
3	8067	335.301642132838	0.293663720226
3	8094	335.969399765519	0.667757632681
3	8132	337.984719175157	2.015319409638
3	8191	341.015475692121	3.030756516964
3	8199	341.19355750537	0.178081813249
3	8253	342.667682625609	1.474125120239
3	8337	344.904521615031	2.236838989422
3	8361	346.933995467528	2.029473852497
3	8404	348.02158202628	1.087586558752
3	8412	348.210786587331	0.189204561051
3	8431	348.538057789985	0.327271202654
3	8458	350.694264884718	2.156207094733
3	8482	351.300370088703	0.606105203985
3	8506	351.599382569991	0.299012481288
3	8514	352.055250068827	0.455867498836
3	8546	353.703109251105	1.647859182278
3	8598	355.505224694263	1.802115443158
3	8625	357.173939523004	1.668714828741
3	8682	357.842333691991	0.668394168987
3	8706	359.434956045774	1.592622353783
3	8714	360.177368857219	0.742412811445
3	8854	366.475220047832	6.297851190613
3	8862	368.265332128768	1.790112080936
3	8878	368.653102438057	0.387770309289
3	8921	369.674788937902	1.021686499845
3	8978	371.720814828241	2.046025890339
3	9048	374.229033255796	2.508218427555
3	9243	384.328764534775	10.099731278979
3	9251	384.920561663096	0.591797128321
3	9278	387.770398646776	2.84983698368
3	9362	390.369287813255	2.598889166479
3	9370	390.593991770051	0.224703956796
3	9397	390.913300609603	0.319308839552
3	9437	392.173459144936	1.260158535333
3	9445	392.49500932245	0.321550177514
3	9453	393.22101384123	0.72600451878
3	9537	394.621572534996	1.400558693766
3	9553	395.419174494453	0.797601959457
3	9580	396.349391757864	0.930217263411
3	9644	397.93799936767	1.588607609806
3	9671	398.701082232863	0.763082865193
3	9701	400.770468591277	2.069386358414
3	9709	401.026274558655	0.255805967378
3	9717	401.495590062571	0.469315503916
3	9725	402.569620531973	1.074030469402
3	9733	402.736469666389	0.166849134416
3	9752	403.05230122948	0.315831563091
3	9771	403.446190643541	0.393889414061
3	9817	405.864398381117	2.418207737576
3	9852	408.501575949788	2.637177568671
3	9860	408.687695684984	0.186119735196
3	9876	409.388239798606	0.700544113622
3	10071	423.400690149913	14.012450351307
3	10293	433.404534125759	10.003843975846
3	10344	435.314154114008	1.909619988249
3	10352	435.688247526834	0.374093412826
3	10414	439.817562530601	4.129315003767
3	10433	440.393644905487	0.576082374886
3	10506	443.188547255822	2.794902350335
3	10579	446.214315706607	3.025768450785
3	10630	449.100379443298	2.886063736691
3	10638	449.417071717368	0.31669227407
3	10757	452.787235896566	3.370164179198
3	10865	456.183307886391	3.396071989825
3	10932	459.319213975859	3.135906089468
3	10940	460.027210868665	0.707996892806
3	10956	462.347958928001	2.320748059336
3	10975	462.583946195417	0.235987267416
3	10983	463.369881071251	0.785934875834
3	10991	464.568693264464	1.198812193213
3	11181	473.201192350598	8.632499086134
3	11321	478.476238576762	5.275046226164
3	11394	481.186036488956	2.709797912194
3	11402	481.698259953091	0.512223464135
3	11470	485.799592897979	4.101332944888
3	11586	489.761419901964	3.961827003985
3	11618	490.396489503955	0.635069601991
3	11667	493.521865475752	3.125375971797
3	11694	493.966127921632	0.44426244588
3	11767	496.351386957601	2.385259035969
3	11794	498.113189114562	1.761802156961
3	11802	498.13610861481	0.022919500248
4	130	2.640345101884	2.640345101884
4	262	9.211930829676	6.571585727792
4	270	9.40687968233	0.194948852654
4	286	9.999168763485	0.592289081155
4	332	12.06391050199	2.064741738505
4	381	13.375361809042	1.311451307052
4	481	15.796127558523	2.420765749481
4	511	17.010760219222	1.214632660699
4	551	18.225477813716	1.214717594494
4	594	18.824565234111	0.599087420395
4	706	25.314245192362	6.489679958251
4	736	26.20499452172	0.890749329358
4	837	30.099580168492	3.894585646772
4	877	31.43215409504	1.332573926548
4	885	31.67896922078	0.24681512574
4	909	31.842280664775	0.163311443995
4	925	32.1576712536	0.315390588825
4	941	33.015803944503	0.858132690903
4	1000	35.664545743276	2.648741798773
4	1102	38.597319777897	2.932774034621
4	1151	40.965581746349	2.368261968452
4	1159	41.223508001932	0.257926255583
4	1175	41.821137842039	0.597629840107
4	1183	42.216250414292	0.395112572253
4	1251	44.968536593013	2.752286178721
4	1267	45.353966046753	0.38542945374
4	1275	45.909480225605	0.555514178852
4	1348	49.325037110914	3.415556885309
4	1356	50.105704255036	0.780667144122
4	1375	50.516966506658	0.411262251622
4	1453	53.288793976598	2.77182746994
4	1499	55.991694879775	2.702900903177
4	1564	59.523083958394	3.531389078619
4	1594	60.015888712341	0.492804753947
4	1626	63.606006525316	3.590117812975
4	1634	63.928445761366	0.32243923605
4	1734	68.126996096252	4.198550334886
4	1769	69.004673619307	0.877677523055
4	1834	71.188423836466	2.183750217159
4	1929	75.205431090798	4.017007254332
4	1996	77.914399749721	2.708968658923
4	2004	78.120990055414	0.206590305693
4	2023	79.746985785009	1.625995729595
4	2031	79.779613644129	0.03262785912
4	2039	80.212362278766	0.432748634637
4	2115	81.226862068665	1.014499789899
4	2123	81.452768468011	0.225906399346
4	2147	83.167693709081	1.71492524107
4	2388	96.713638002329	13.545944293248
4	2396	96.746641956541	0.033003954212
4	2447	98.102716177672	1.356074221131
4	2604	104.433048616088	6.330332438416
4	2623	105.254948175128	0.82189955904
4	2671	106.020508353151	0.765560178023
4	2679	106.068639278488	0.048130925337
4	2687	106.932125408479	0.863486129991
4	2695	107.074154720509	0.14202931203
4	2703	108.7878667578	1.713712037291
4	2711	108.895494654233	0.107627896433
4	2768	110.484030686789	1.588536032556
4	2957	118.616486037413	8.132455350624
4	2965	118.644443208182	0.027957170769
4	2995	119.336707083401	0.692263875219
4	3014	119.781141238823	0.444434155422
4	3030	120.265976018722	0.484834779899
4	3046	120.619210252988	0.353234234266
4	3054	120.715431655151	0.096221402163
4	3178	126.853347541517	6.137915886366
4	3245	128.850497317608	1.997149776091
4	3289	129.502783692693	0.652286375085
4	3324	130.149936304059	0.647152611366
4	3332	130.7639718917	0.614035587641
4	3348	131.17668382152	0.41271192982
4	3375	133.715363549406	2.538679727886
4	3383	134.624629780581	0.909266231175
4	3391	134.87946417903	0.254834398449
4	3399	134.96272355044	0.08325937141
4	3475	138.693094825655	3.730371275215
4	3564	141.793386851256	3.100292025601
4	3572	142.246339346674	0.452952495418
4	3610	144.5472775878	2.300938241126
4	3618	145.2425003904	0.6952228026
4	3626	145.420518616617	0.178018226217
4	3650	146.736286135525	1.315767518908
4	3682	148.248800906999	1.512514771474
4	3747	149.406636891582	1.157835984583
4	3755	149.630473381827	0.223836490245
4	3842	152.644097160219	3.013623778392
4	3893	155.714980546349	3.07088338613
4	3928	157.64736733383	1.932386787481
4	3995	160.631733846607	2.984366512777
4	4044	161.664087022744	1.032353176137
4	4063	162.879436753303	1.215349730559
4	4071	163.353139798857	0.473703045554
4	4079	163.788623178599	0.435483379742
4	4109	165.493236426995	1.704613248396
4	4136	167.213178821666	1.719942394671
4	4163	167.758257798376	0.54507897671
4	4171	167.898834146255	0.140576347879
4	4241	171.701179068467	3.802344922212
4	4290	174.721068270767	3.0198892023
4	4469	182.969453804459	8.248385533692
4	4493	183.282275699867	0.312821895408
4	4512	184.031661516736	0.749385816869
4	4520	184.932856831381	0.901195314645
4	4606	187.690060872133	2.757204040752
4	4638	188.81249838663	1.122437514497
4	4662	190.430126815724	1.617628429094
4	4735	192.727402587452	2.297275771728
4	4954	200.904068336386	8.176665748934
4	4970	202.43147385493	1.527405518544
4	4978	203.057773537758	0.626299682828
4	4986	203.313107783273	0.255334245515
4	5013	205.080665590376	1.767557807103
4	5032	205.475800571117	0.395134980741
4	5040	205.51003494705	0.034234375933
4	5094	206.838511912014	1.328476964964
4	5121	208.327081056237	1.488569144223
4	5180	213.542405891914	5.215324835677
4	5278	217.78044331128	4.238037419366
4	5305	219.31227354775	1.53183023647
4	5313	219.470866585274	0.158593037524
4	5321	219.87498324065	0.404116655376
4	5448	224.718914772552	4.843931531902
4	5620	231.630780009868	6.911865237316
4	5677	233.349387928513	1.718607918645
4	5791	239.059094885601	5.709706957088
4	5950	246.879016500169	7.819921614568
4	6007	249.1773415773	2.298325077131
4	6023	250.115619929441	0.938278352141
4	6039	250.256320538308	0.140700608867
4	6047	250.29387643209	0.037555893782
4	6074	254.215832625193	3.921956193103
4	6194	257.925463608101	3.709630982908
4	6275	262.624160181106	4.698696573005
4	6299	263.030433861327	0.406273680221
4	6323	263.4621106904	0.431676829073
4	6355	263.746144733595	0.284034043195
4	6363	264.204851293824	0.458706560229
4	6382	264.86923667436	0.664385380536
4	6398	266.039525626123	1.170288951763
4	6406	266.329537083554	0.290011457431
4	6430	267.121266989188	0.791729905634
4	6525	270.635733408681	3.514466419493
4	6574	272.966465337868	2.330731929187
4	6582	273.117357659343	0.150892321475
4	6622	274.339319271744	1.221961612401
4	6641	274.764357662427	0.425038390683
4	6649	274.806562770244	0.042205107817
4	6657	274.988276972929	0.181714202685
4	6673	275.332437927652	0.344160954723
4	6759	277.024305359861	1.691867432209
4	6888	282.693733885278	5.669428525417
4	6896	282.911956613229	0.218222727951
4	6944	286.5366829199	3.624726306671
4	6985	289.64923698423	3.11255406433
4	7148	296.312460386488	6.663223402258
4	7156	296.869925425518	0.55746503903
4	7172	297.394300372577	0.524374947059
4	7188	298.106279563705	0.711979191128
4	7223	299.361145994303	1.254866430598
4	7274	302.765412204541	3.404266210238
4	7388	307.975052708258	5.209640503717
4	7407	308.82193963346	0.846886925202
4	7450	310.904905078163	2.082965444703
4	7544	314.985342556255	4.080437478092
4	7649	320.38575701373	5.400414457475
4	7725	321.025884499147	0.640127485417
4	7763	322.574153661835	1.548269162688
4	7795	324.429000493683	1.854846831848
4	7803	324.509740465934	0.080739972251
4	7811	324.517755090269	0.008014624335
4	7865	326.719372285733	2.201617195464
4	7897	328.074465688605	1.355093402872
4	7905	328.083256455528	0.008790766923
4	7913	329.324210850033	1.240954394505
4	8140	337.988405469802	8.664194619769
4	8156	338.477508685831	0.489103216029
4	8234	342.424008597855	3.946499912024
4	8291	344.317073575198	1.893064977343
4	8299	344.823170798007	0.506097222809
4	8369	347.051834686913	2.228663888906
4	8388	347.695793906514	0.643959219601
4	8396	347.764284166387	0.068490259873
4	8474	351.09830473191	3.334020565523
4	8522	352.412414947274	1.314110215364
4	8530	353.182463813359	0.770048866085
4	8617	356.73062250478	3.548158691421
4	8633	357.193453532076	0.462831027296
4	8690	357.934599818524	0.741146286448
4	8754	362.049210019996	4.114610201472
4	9072	376.206602542435	14.157392522439
4	9118	378.885189099377	2.678586556942
4	9156	380.626975598281	1.741786498904
4	9186	381.009846481172	0.382870882891
4	9259	385.69804758282	4.688201101648
4	9294	388.04488280555	2.34683522273
4	9324	388.882218380373	0.837335574823
4	9343	389.804214707963	0.92199632759
4	9413	391.448134610929	1.643919902966
4	9429	391.985431924427	0.537297313498
4	9499	393.930618693707	1.94518676928
4	9561	395.519843782858	1.589225089151
4	9628	397.350393014457	1.830549231599
4	9798	404.787402299358	7.437009284901
4	9914	412.750850420602	7.963448121244
4	10030	419.624957992953	6.874107572351
4	10185	428.970491404891	9.345533411938
4	10223	429.535688986369	0.565197581478
4	10277	433.088622279458	3.552933293089
4	10301	433.423457893206	0.334835613748
4	10309	433.661661510016	0.23820361681
4	10371	436.779685621031	3.118024111015
4	10463	440.984221237515	4.204535616484
4	10482	442.124161470943	1.139940233428
4	10490	442.31856835092	0.194406879977
4	10587	446.521439300321	4.202870949401
4	10662	450.287757046088	3.766317745767
4	10722	452.010864816728	1.72310777064
4	10730	452.367504995631	0.356640178903
4	10781	453.250125591801	0.88262059617
4	10797	453.785684567948	0.535558976147
4	10900	457.908976808429	4.123292240481
4	10948	460.112864502283	2.203887693854
4	11095	469.093480154214	8.980615651931
4	11103	469.098024094183	0.004543939969
4	11111	469.202812513465	0.104788419282
4	11157	472.36764184567	3.164829332205
4	11173	473.022055878808	0.654414033138
4	11259	475.50967070487	2.487614826062
4	11267	476.174055810413	0.664385105543
4	11340	478.609547460186	2.435491649773
4	11462	485.410223760341	6.800676300155
4	11486	486.477566020527	1.067342260186
4	11505	487.372778631699	0.895212611172
4	11521	487.994732924924	0.621954293225
4	11548	489.005264324092	1.010531399168
4	11686	493.785977393166	4.780713069074
4	11724	494.882251611495	1.096274218329
4	11810	498.260767083458	3.378515471963
4	11818	498.829041418596	0.568274335138

