version 2
run General-2-20220514-10:33:02-14536
attr configname General
attr datetime 20220514-10:33:02
attr experiment General
attr inifile omnetpp.ini
attr iterationvars $0=0.3
attr iterationvarsf 0.3-
attr measurement $0=0.3
attr network Lab2
attr processid 14536
attr repetition 0
attr replication #0
attr resultdir results
attr runnumber 2
attr seedset 2
param **.sim_time 500s
param **.next_event_par 1.0/(0.3)
param **.pck_len_mean 1000
param **.pck_len_stddev 150
param **.pck_len_min 26
param **.pck_len_max 1480
param **.num_of_hosts 4
param **.host1.ipAddr.IP_addr 0
param **.host2.ipAddr.IP_addr 1
param **.host3.ipAddr.IP_addr 2
param **.host4.ipAddr.IP_addr 3
param **.arp_ttl 10s
param **.host1.eth.MAC_addr 0
param **.host2.eth.MAC_addr 1
param **.host3.eth.MAC_addr 2
param **.host4.eth.MAC_addr 3
param **.aging_time 1s

vector 0 Lab2.host3.eth interval:vector ETV
attr interpolationmode none
attr source interval
attr title "interval, vector"
vector 1 Lab2 delay:vector ETV
attr interpolationmode none
attr source delay
attr title "delay, vector"
vector 2 Lab2.host4.eth interval:vector ETV
attr interpolationmode none
attr source interval
attr title "interval, vector"
vector 3 Lab2.host2.eth interval:vector ETV
attr interpolationmode none
attr source interval
attr title "interval, vector"
vector 4 Lab2.host1.eth interval:vector ETV
attr interpolationmode none
attr source interval
attr title "interval, vector"
0	79	2.860221198496	2.860221198496
0	117	6.143204640961	3.282983442465
0	157	8.380826764982	2.237622124021
0	277	15.5973235248	7.216496759818
0	323	20.966468872329	5.369145347529
0	500	36.17252585936	15.206056987031
0	560	44.948177294461	8.775651435101
0	748	58.557181370637	13.609004076176
0	794	61.19907462423	2.641893253593
0	802	61.23531450478	0.03623988055
0	818	62.163965633715	0.928651128935
0	908	71.499877950692	9.335912316977
0	960	74.320397176194	2.820519225502
0	976	75.626641707749	1.306244531555
0	1011	77.386932214744	1.760290506995
0	1141	86.221252440492	8.834320225748
0	1222	90.062776971173	3.841524530681
0	1238	91.382058569364	1.319281598191
0	1246	94.011631418642	2.629572849278
0	1300	96.208552336196	2.196920917554
0	1338	97.827395473075	1.618843136879
0	1403	106.47442464132	8.647029168245
0	1474	112.401038648662	5.926614007342
0	1561	123.0198535927	10.618814944038
0	1591	127.359428204913	4.339574612213
0	1752	140.468691445255	13.109263240342
0	1820	144.730172290724	4.261480845469
0	1876	149.099364136492	4.369191845768
0	1900	150.796545236804	1.697181100312
0	1919	152.768991769725	1.972446532921
0	2061	170.140367181271	17.371375411546
0	2069	170.742541012769	0.602173831498
0	2088	170.917277361787	0.174736349018
0	2118	176.262522832589	5.345245470802
0	2145	179.265035715047	3.002512882458
0	2303	190.219270892287	10.95423517724
0	2322	190.594816811131	0.375545918844
0	2338	191.497946913408	0.903130102277
0	2381	194.747413519701	3.249466606293
0	2433	197.533952607615	2.786539087914
0	2587	207.631545213865	10.09759260625
0	2606	210.212277123209	2.580731909344
0	2633	211.451190079447	1.238912956238
0	2652	212.750402919373	1.299212839926
0	2690	220.177868851721	7.427465932348
0	2720	225.166104493049	4.988235641328
0	2728	226.83758487397	1.671480380921
0	2818	230.841621312303	4.004036438333
0	2845	232.448836595229	1.607215282926
0	2920	238.903586877263	6.454750282034
0	3026	250.906052574302	12.002465697039
0	3083	256.288234470737	5.382181896435
0	3091	256.819046862912	0.530812392175
0	3099	257.164302215952	0.34525535304
0	3540	304.190400299009	47.026098083057
0	3730	321.75664174654	17.566241447531
0	3795	325.89365990083	4.13701815429
0	3882	332.147426613226	6.253766712396
0	3906	333.17602799135	1.028601378124
0	3971	340.23762505597	7.06159706462
0	3979	340.946066682573	0.708441626603
0	4155	351.039096624642	10.093029942069
0	4220	354.601553684618	3.562457059976
0	4288	360.897630218549	6.296076533931
0	4296	361.665471336387	0.767841117838
0	4334	363.755572995819	2.090101659432
0	4342	365.008561916862	1.252988921043
0	4383	368.178074532542	3.16951261568
0	4522	383.835730510072	15.65765597753
0	4549	384.532288932269	0.696558422197
0	4581	387.459275336736	2.926986404467
0	4589	389.217879377811	1.758604041075
0	4717	394.90540936444	5.687529986629
0	4891	412.356227121832	17.450817757392
0	4976	419.906255765105	7.550028643273
0	5011	424.952007232804	5.045751467699
0	5068	432.824527740458	7.872520507654
0	5266	453.698249570539	20.873721830081
0	5293	454.747032296367	1.048782725828
0	5309	455.49788603999	0.750853743623
0	5328	455.84985611366	0.35197007367
0	5473	476.896151516704	21.046295403044
0	5522	478.372700762783	1.476549246079
0	5549	482.942893360219	4.570192597436
1	79	2.860221198496	8.72e-005
1	109	6.058311384483	7.264e-005
1	117	6.143204640961	8.688e-005
1	125	6.470057048134	8.392e-005
1	133	6.945774276512	7.408e-005
1	141	7.306090534216	7.248e-005
1	149	8.057172462775	7.184e-005
1	157	8.380826764982	7.416e-005
1	165	8.415874766359	0.00010288
1	228	12.322123063349	9.04e-005
1	236	13.621981475216	8.624e-005
1	277	15.5973235248	4.968e-005
1	285	15.887590677746	8.336e-005
1	315	18.679391950305	6.872e-005
1	323	20.966468872329	7.152e-005
1	331	21.016666448608	7.224e-005
1	350	26.314991610531	8.648e-005
1	402	28.683433559719	8.992e-005
1	410	30.285979538593	7.944e-005
1	429	31.551530586818	6.632e-005
1	459	33.381084802409	6.024e-005
1	500	36.17252585936	0.00010344
1	508	37.156607081668	4.952e-005
1	560	44.948177294461	9.184e-005
1	623	46.808744447733	0.00010352
1	631	46.975700033296	7.712e-005
1	639	49.252460418394	8.296e-005
1	647	50.412013203417	8e-005
1	666	53.86574792617	8.272e-005
1	685	54.924803709671	6.408e-005
1	748	58.557181370637	9.816e-005
1	778	60.746699352131	9.16e-005
1	786	61.165660896085	7.992e-005
1	794	61.19907462423	8.352e-005
1	802	61.23531450478	0.000104
1	810	61.430982306258	8.136e-005
1	818	62.163965633715	7.56e-005
1	870	69.265040889065	9.664e-005
1	900	71.330251986341	8.76e-005
1	908	71.499877950692	7.056e-005
1	960	74.320397176194	8.272e-005
1	968	74.662532262902	8.384e-005
1	976	75.626641707749	7.272e-005
1	995	76.292668932031	7.912e-005
1	1003	76.38192424893	8.904e-005
1	1011	77.386932214744	8.744e-005
1	1019	78.046919951646	7.608e-005
1	1027	78.721822518186	8.6e-005
1	1046	79.498325489435	7.728e-005
1	1054	79.542753009946	8.2e-005
1	1062	79.683249656748	8.888e-005
1	1070	81.240795099637	8.112e-005
1	1089	82.242142880911	8.304e-005
1	1141	86.221252440492	8.368e-005
1	1149	87.317596140916	7.808e-005
1	1168	87.622380692757	7.904e-005
1	1187	88.092568800398	7.944e-005
1	1195	88.112130624516	8.888e-005
1	1203	88.758725021243	6.648e-005
1	1222	90.062776971173	0.0001036
1	1230	91.241696865396	9.016e-005
1	1238	91.382058569364	6.984e-005
1	1246	94.011631418642	8.28e-005
1	1254	94.796309829948	9.216e-005
1	1273	95.396445839525	6.272e-005
1	1292	96.157951893838	8.96e-005
1	1300	96.208552336196	0.00010544
1	1319	96.643051734271	7.448e-005
1	1338	97.827395473075	8.152e-005
1	1368	102.59321260533	7.616e-005
1	1376	103.868896631724	0.00011064
1	1384	104.17593721345	7.336e-005
1	1403	106.47442464132	6.808e-005
1	1444	109.909069353917	9e-005
1	1474	112.401038648662	7.096e-005
1	1482	114.638710655008	7.872e-005
1	1534	119.432922305284	7.536e-005
1	1542	120.396682195514	0.00010488
1	1561	123.0198535927	9.536e-005
1	1591	127.359428204913	7.68e-005
1	1621	130.271279835011	7.912e-005
1	1662	134.760912375587	7.56e-005
1	1703	137.651572441111	7.336e-005
1	1744	140.001207715535	8.168e-005
1	1752	140.468691445255	6.32e-005
1	1760	140.531859524946	8.672e-005
1	1768	141.093129235273	6.608e-005
1	1820	144.730172290724	7.976e-005
1	1828	145.529739922438	7.84e-005
1	1836	145.647120554966	7.488e-005
1	1844	145.839164462079	7.816e-005
1	1852	147.287105729909	7.848e-005
1	1860	147.362083454248	7.352e-005
1	1868	148.494511628738	7.304e-005
1	1876	149.099364136492	8.04e-005
1	1884	149.327080809407	9.952e-005
1	1892	149.88781948134	3.8e-005
1	1900	150.796545236804	8.424e-005
1	1919	152.768991769725	7.056e-005
1	1949	154.907015783989	8.504e-005
1	1968	158.256673107208	8.72e-005
1	2042	167.341948944504	8.456e-005
1	2061	170.140367181271	9e-005
1	2069	170.742541012769	8.976e-005
1	2088	170.917277361787	0.00012
1	2118	176.262522832589	9.88e-005
1	2137	178.525964288219	7.384e-005
1	2145	179.265035715047	8.384e-005
1	2186	181.174642397877	7.904e-005
1	2194	181.934678558263	9.64e-005
1	2213	183.268542479322	7.152e-005
1	2243	184.613292181362	9.224e-005
1	2273	188.094069482528	7.824e-005
1	2303	190.219270892287	7.552e-005
1	2322	190.594816811131	7.776e-005
1	2330	191.136542138036	7.856e-005
1	2338	191.497946913408	8.104e-005
1	2346	192.329971011561	8.168e-005
1	2354	192.574330515865	6.064e-005
1	2373	193.62793326564	8.976e-005
1	2381	194.747413519701	0.00010008
1	2433	197.533952607615	7.816e-005
1	2441	198.154601643304	7.992e-005
1	2449	198.75314337952	9.16e-005
1	2479	199.837267581804	7.08e-005
1	2487	201.11860800385	8.096e-005
1	2506	202.704398162227	4.096e-005
1	2525	203.602586460941	8.896e-005
1	2533	203.611705651632	8.096e-005
1	2541	204.895370720513	8.216e-005
1	2549	205.09734750545	8.96e-005
1	2579	207.265978832973	8.64e-005
1	2587	207.631545213865	9.616e-005
1	2606	210.212277123209	7.56e-005
1	2625	211.153875877962	7.592e-005
1	2633	211.451190079447	5.64e-005
1	2652	212.750402919373	9.016e-005
1	2671	219.450358232564	8.112e-005
1	2690	220.177868851721	7.048e-005
1	2720	225.166104493049	9.568e-005
1	2728	226.83758487397	7.648e-005
1	2769	228.638553109886	6.296e-005
1	2788	229.561303759908	9.152e-005
1	2818	230.841621312303	8.12e-005
1	2837	231.741499476965	8.032e-005
1	2845	232.448836595229	8.376e-005
1	2864	233.558274056488	9.504e-005
1	2872	233.808584274244	8.568e-005
1	2880	234.705111594935	7.456e-005
1	2888	235.124575634038	6.224e-005
1	2896	236.47864967116	6.52e-005
1	2904	236.816822379858	0.00010048
1	2912	238.110046216914	9.984e-005
1	2920	238.903586877263	7.168e-005
1	2983	243.699379934389	7.624e-005
1	2991	246.233182904326	6e-005
1	2999	248.455629275972	9.04e-005
1	3018	249.680322656101	7.24e-005
1	3026	250.906052574302	0.00010176
1	3034	250.907580749707	8.488e-005
1	3064	252.348270490016	8.568e-005
1	3083	256.288234470737	8.68e-005
1	3091	256.819046862912	8.104e-005
1	3099	257.164302215952	0.00011144
1	3118	257.907161150609	6.968e-005
1	3148	259.956717904569	7.944e-005
1	3167	261.696318682032	7.592e-005
1	3186	265.373229239065	8.328e-005
1	3205	267.963075175752	9e-005
1	3257	272.292623605553	7.184e-005
1	3287	277.459589234574	6.352e-005
1	3328	278.908998456531	8.904e-005
1	3336	279.091591284956	7.448e-005
1	3344	281.016209433185	7.048e-005
1	3363	283.855429611304	8.408e-005
1	3382	285.386593037993	8.28e-005
1	3445	297.361674476455	7.752e-005
1	3453	297.460821016005	7.976e-005
1	3461	298.21836641728	6.808e-005
1	3480	298.859489729932	7.256e-005
1	3499	301.284573138407	9.232e-005
1	3540	304.190400299009	8.976e-005
1	3581	308.026519339082	8.104e-005
1	3600	308.439508227776	9.624e-005
1	3608	311.3433051856	7.84e-005
1	3616	311.586120956491	7.328e-005
1	3635	313.240614002054	6.552e-005
1	3665	317.421116231613	8.8e-005
1	3695	320.141534333118	7.872e-005
1	3703	320.42459603341	7.752e-005
1	3711	321.354647501033	0.0001024
1	3730	321.75664174654	8.12e-005
1	3749	323.106628316445	8.424e-005
1	3757	323.837049783754	6.808e-005
1	3765	324.706562016134	8.64e-005
1	3795	325.89365990083	9.312e-005
1	3847	330.955852162726	7.472e-005
1	3855	331.037931727235	9.936e-005
1	3863	331.848668314705	9.296e-005
1	3882	332.147426613226	9.208e-005
1	3890	332.173962552167	8.408e-005
1	3898	332.217592554375	8.704e-005
1	3906	333.17602799135	6.936e-005
1	3936	335.578092018288	6.424e-005
1	3944	337.64581130769	9.072e-005
1	3952	338.486008952475	8.856e-005
1	3971	340.23762505597	7.8e-005
1	3979	340.946066682573	8.2e-005
1	3998	341.245274249728	0.00010976
1	4006	341.406644862153	8.776e-005
1	4014	343.1475663064	8.368e-005
1	4044	343.987339451848	7.384e-005
1	4074	346.359635954905	6.352e-005
1	4082	346.899540106175	7.096e-005
1	4090	347.394020970573	0.00010288
1	4098	347.644619372914	8.848e-005
1	4106	347.846527131984	8.816e-005
1	4114	347.938380927344	6.416e-005
1	4155	351.039096624642	8.048e-005
1	4163	351.084213168794	7.6e-005
1	4182	351.74284998177	0.00010296
1	4201	354.238719148054	9.184e-005
1	4220	354.601553684618	8.872e-005
1	4239	356.889121577664	8.496e-005
1	4280	360.0051899943	6.784e-005
1	4288	360.897630218549	8.52e-005
1	4296	361.665471336387	8.216e-005
1	4326	363.20332711041	6.904e-005
1	4334	363.755572995819	8.168e-005
1	4342	365.008561916862	8.672e-005
1	4383	368.178074532542	9.232e-005
1	4402	371.213923102689	0.00010648
1	4410	376.469796100484	7.216e-005
1	4418	376.704066185802	7.544e-005
1	4503	381.999567548691	9.24e-005
1	4522	383.835730510072	7.544e-005
1	4541	384.502840850307	7.144e-005
1	4549	384.532288932269	6.264e-005
1	4557	384.756970171361	6.624e-005
1	4565	385.027305770225	9.136e-005
1	4573	387.388071480068	5.32e-005
1	4581	387.459275336736	8.568e-005
1	4589	389.217879377811	0.0001096
1	4608	389.929551961858	7.864e-005
1	4660	392.669545229386	7.888e-005
1	4668	393.627059778275	5.784e-005
1	4698	394.339609635791	8.848e-005
1	4717	394.90540936444	9.592e-005
1	4725	395.920589469443	7.544e-005
1	4755	401.232945607035	9.312e-005
1	4807	405.912332598458	0.0001104
1	4815	406.664565948913	8.056e-005
1	4856	408.417731429261	0.00011376
1	4875	411.039769025652	5.76e-005
1	4883	412.215321994793	9.848e-005
1	4891	412.356227121832	8.552e-005
1	4976	419.906255765105	0.0001132
1	4984	420.756820135765	0.00010088
1	4992	421.514546037385	9.496e-005
1	5011	424.952007232804	7.92e-005
1	5019	426.029789148898	9.008e-005
1	5049	431.1543987017	8.104e-005
1	5068	432.824527740458	7.936e-005
1	5076	433.624128052863	7.784e-005
1	5084	434.024561381534	0.0001056
1	5114	439.286664739353	6.84e-005
1	5122	440.744879477319	6.68e-005
1	5174	444.551095073741	7.728e-005
1	5182	445.208006746701	0.00010648
1	5190	445.811605231947	7.592e-005
1	5198	447.195502924074	6.992e-005
1	5239	449.927487392866	8.92e-005
1	5258	452.05388804848	9.736e-005
1	5266	453.698249570539	7.472e-005
1	5285	454.30179919783	0.00010528
1	5293	454.747032296367	9.872e-005
1	5301	455.3026687984	8.696e-005
1	5309	455.49788603999	0.00010528
1	5328	455.84985611366	8.648e-005
1	5402	467.672779184294	6.456e-005
1	5432	473.477378258118	0.00010008
1	5473	476.896151516704	8.408e-005
1	5492	477.321364114283	0.00010032
1	5522	478.372700762783	9.016e-005
1	5541	480.740143144281	5.728e-005
1	5549	482.942893360219	8.456e-005
1	5579	484.050796258218	9.232e-005
1	5587	485.386790271745	8.184e-005
1	5595	485.810610284927	5.728e-005
1	5625	487.321212342044	5.736e-005
1	5666	489.678377196165	8.144e-005
1	5718	497.427929064673	6.216e-005
2	109	6.058311384483	6.058311384483
2	125	6.470057048134	0.411745663651
2	133	6.945774276512	0.475717228378
2	228	12.322123063349	5.376348786837
2	285	15.887590677746	3.565467614397
2	508	37.156607081668	21.269016403922
2	639	49.252460418394	12.095853336726
2	870	69.265040889065	20.012580470671
2	995	76.292668932031	7.027628042966
2	1054	79.542753009946	3.250084077915
2	1062	79.683249656748	0.140496646802
2	1149	87.317596140916	7.634346484168
2	1168	87.622380692757	0.304784551841
2	1187	88.092568800398	0.470188107641
2	1384	104.17593721345	16.083368413052
2	1482	114.638710655008	10.462773441558
2	1828	145.529739922438	30.89102926743
2	1844	145.839164462079	0.309424539641
2	1884	149.327080809407	3.487916347328
2	1949	154.907015783989	5.579934974582
2	2137	178.525964288219	23.61894850423
2	2186	181.174642397877	2.648678109658
2	2213	183.268542479322	2.093900081445
2	2243	184.613292181362	1.34474970204
2	2373	193.62793326564	9.014641084278
2	2487	201.11860800385	7.49067473821
2	2506	202.704398162227	1.585790158377
2	2579	207.265978832973	4.561580670746
2	2671	219.450358232564	12.184379399591
2	2788	229.561303759908	10.110945527344
2	2864	233.558274056488	3.99697029658
2	2872	233.808584274244	0.250310217756
2	2880	234.705111594935	0.896527320691
2	2904	236.816822379858	2.111710784923
2	2983	243.699379934389	6.882557554531
2	3186	265.373229239065	21.673849304676
2	3205	267.963075175752	2.589845936687
2	3257	272.292623605553	4.329548429801
2	3344	281.016209433185	8.723585827632
2	3363	283.855429611304	2.839220178119
2	3581	308.026519339082	24.171089727778
2	3665	317.421116231613	9.394596892531
2	3695	320.141534333118	2.720418101505
2	3847	330.955852162726	10.814317829608
2	3890	332.173962552167	1.218110389441
2	4074	346.359635954905	14.185673402738
2	4090	347.394020970573	1.034385015668
2	4106	347.846527131984	0.452506161411
2	4163	351.084213168794	3.23768603681
2	4182	351.74284998177	0.658636812976
2	4201	354.238719148054	2.495869166284
2	4418	376.704066185802	22.465347037748
2	4573	387.388071480068	10.684005294266
2	4698	394.339609635791	6.951538155723
2	4725	395.920589469443	1.580979833652
2	4755	401.232945607035	5.312356137592
2	5019	426.029789148898	24.796843541863
2	5190	445.811605231947	19.781816083049
2	5198	447.195502924074	1.383897692127
2	5239	449.927487392866	2.731984468792
2	5285	454.30179919783	4.374311804964
2	5301	455.3026687984	1.00086960057
2	5432	473.477378258118	18.174709459718
2	5492	477.321364114283	3.843985856165
2	5541	480.740143144281	3.418779029998
3	141	7.306090534216	7.306090534216
3	149	8.057172462775	0.751081928559
3	165	8.415874766359	0.358702303584
3	315	18.679391950305	10.263517183946
3	402	28.683433559719	10.004041609414
3	410	30.285979538593	1.602545978874
3	459	33.381084802409	3.095105263816
3	647	50.412013203417	17.030928401008
3	685	54.924803709671	4.512790506254
3	900	71.330251986341	16.40544827667
3	968	74.662532262902	3.332280276561
3	1003	76.38192424893	1.719391986028
3	1019	78.046919951646	1.664995702716
3	1027	78.721822518186	0.67490256654
3	1046	79.498325489435	0.776502971249
3	1070	81.240795099637	1.742469610202
3	1089	82.242142880911	1.001347781274
3	1203	88.758725021243	6.516582140332
3	1319	96.643051734271	7.884326713028
3	1368	102.59321260533	5.950160871059
3	1444	109.909069353917	7.315856748587
3	1542	120.396682195514	10.487612841597
3	1662	134.760912375587	14.364230180073
3	1703	137.651572441111	2.890660065524
3	1744	140.001207715535	2.349635274424
3	1760	140.531859524946	0.530651809411
3	1836	145.647120554966	5.11526103002
3	1852	147.287105729909	1.639985174943
3	1868	148.494511628738	1.207405898829
3	1892	149.88781948134	1.393307852602
3	2441	198.154601643304	48.266782161964
3	2533	203.611705651632	5.457104008328
3	2549	205.09734750545	1.485641853818
3	2769	228.638553109886	23.541205604436
3	2991	246.233182904326	17.59462979444
3	2999	248.455629275972	2.222446371646
3	3018	249.680322656101	1.224693380129
3	3118	257.907161150609	8.226838494508
3	3382	285.386593037993	27.479431887384
3	3461	298.21836641728	12.831773379287
3	3480	298.859489729932	0.641123312652
3	3616	311.586120956491	12.726631226559
3	3635	313.240614002054	1.654493045563
3	3703	320.42459603341	7.183982031356
3	3711	321.354647501033	0.930051467623
3	3765	324.706562016134	3.351914515101
3	3855	331.037931727235	6.331369711101
3	3863	331.848668314705	0.81073658747
3	3936	335.578092018288	3.729423703583
3	3944	337.64581130769	2.067719289402
3	3952	338.486008952475	0.840197644785
3	3998	341.245274249728	2.759265297253
3	4014	343.1475663064	1.902292056672
3	4044	343.987339451848	0.839773145448
3	4082	346.899540106175	2.912200654327
3	4402	371.213923102689	24.314382996514
3	4410	376.469796100484	5.255872997795
3	4503	381.999567548691	5.529771448207
3	4541	384.502840850307	2.503273301616
3	4668	393.627059778275	9.124218927968
3	4992	421.514546037385	27.88748625911
3	5076	433.624128052863	12.109582015478
3	5084	434.024561381534	0.400433328671
3	5114	439.286664739353	5.262103357819
3	5122	440.744879477319	1.458214737966
3	5258	452.05388804848	11.309008571161
3	5402	467.672779184294	15.618891135814
3	5579	484.050796258218	16.378017073924
3	5666	489.678377196165	5.627580937947
3	5718	497.427929064673	7.749551868508
4	236	13.621981475216	13.621981475216
4	331	21.016666448608	7.394684973392
4	350	26.314991610531	5.298325161923
4	429	31.551530586818	5.236538976287
4	623	46.808744447733	15.257213860915
4	631	46.975700033296	0.166955585563
4	666	53.86574792617	6.890047892874
4	778	60.746699352131	6.880951425961
4	786	61.165660896085	0.418961543954
4	810	61.430982306258	0.265321410173
4	1195	88.112130624516	26.681148318258
4	1230	91.241696865396	3.12956624088
4	1254	94.796309829948	3.554612964552
4	1273	95.396445839525	0.600136009577
4	1292	96.157951893838	0.761506054313
4	1376	103.868896631724	7.710944737886
4	1534	119.432922305284	15.56402567356
4	1621	130.271279835011	10.838357529727
4	1768	141.093129235273	10.821849400262
4	1860	147.362083454248	6.268954218975
4	1968	158.256673107208	10.89458965296
4	2042	167.341948944504	9.085275837296
4	2194	181.934678558263	14.592729613759
4	2273	188.094069482528	6.159390924265
4	2330	191.136542138036	3.042472655508
4	2346	192.329971011561	1.193428873525
4	2354	192.574330515865	0.244359504304
4	2449	198.75314337952	6.178812863655
4	2479	199.837267581804	1.084124202284
4	2525	203.602586460941	3.765318879137
4	2541	204.895370720513	1.292784259572
4	2625	211.153875877962	6.258505157449
4	2837	231.741499476965	20.587623599003
4	2888	235.124575634038	3.383076157073
4	2896	236.47864967116	1.354074037122
4	2912	238.110046216914	1.631396545754
4	3034	250.907580749707	12.797534532793
4	3064	252.348270490016	1.440689740309
4	3148	259.956717904569	7.608447414553
4	3167	261.696318682032	1.739600777463
4	3287	277.459589234574	15.763270552542
4	3328	278.908998456531	1.449409221957
4	3336	279.091591284956	0.182592828425
4	3445	297.361674476455	18.270083191499
4	3453	297.460821016005	0.09914653955
4	3499	301.284573138407	3.823752122402
4	3600	308.439508227776	7.154935089369
4	3608	311.3433051856	2.903796957824
4	3749	323.106628316445	11.763323130845
4	3757	323.837049783754	0.730421467309
4	3898	332.217592554375	8.380542770621
4	4006	341.406644862153	9.189052307778
4	4098	347.644619372914	6.237974510761
4	4114	347.938380927344	0.29376155443
4	4239	356.889121577664	8.95074065032
4	4280	360.0051899943	3.116068416636
4	4326	363.20332711041	3.19813711611
4	4557	384.756970171361	21.553643060951
4	4565	385.027305770225	0.270335598864
4	4608	389.929551961858	4.902246191633
4	4660	392.669545229386	2.739993267528
4	4807	405.912332598458	13.242787369072
4	4815	406.664565948913	0.752233350455
4	4856	408.417731429261	1.753165480348
4	4875	411.039769025652	2.622037596391
4	4883	412.215321994793	1.175552969141
4	4984	420.756820135765	8.541498140972
4	5049	431.1543987017	10.397578565935
4	5174	444.551095073741	13.396696372041
4	5182	445.208006746701	0.65691167296
4	5587	485.386790271745	40.178783525044
4	5595	485.810610284927	0.423820013182
4	5625	487.321212342044	1.510602057117

